# File generated by Flopy version 3.3.6 on 07/15/2022 at 14:09:44.
BEGIN griddata
  strt
    CONSTANT      95.00000000
END griddata

