# File generated by Flopy version 3.3.6 on 05/31/2022 at 16:28:34.
BEGIN options
  SAVE_FLOWS
  OBS6  FILEIN  etdemand_sup.obs
  MOVER
  UNIT_CONVERSION   86400.00000000
END options

BEGIN dimensions
  NREACHES  10
END dimensions

BEGIN packagedata
  1  1 1 8     100.00000000       5.00000000       0.02000000      99.00000000       0.50000000  1.50000000E-05  0.03  1       1.00000000  0
  2  1 2 8     100.00000000       5.00000000       0.02000000      99.00000000       0.50000000  1.50000000E-05  0.03  2       1.00000000  0
  3  1 3 8     100.00000000       5.00000000       0.02000000      99.00000000       0.50000000  1.50000000E-05  0.03  2       1.00000000  0
  4  1 4 8     100.00000000       5.00000000       0.02000000      99.00000000       0.50000000  1.50000000E-05  0.03  2       1.00000000  0
  5  1 5 8     100.00000000       5.00000000       0.02000000      99.00000000       0.50000000  1.50000000E-05  0.03  2       1.00000000  0
  6  1 6 8     100.00000000       5.00000000       0.02000000      99.00000000       0.50000000  1.50000000E-05  0.03  2       1.00000000  0
  7  1 7 8     100.00000000       5.00000000       0.02000000      99.00000000       0.50000000  1.50000000E-05  0.03  2       1.00000000  0
  8  1 8 8     100.00000000       5.00000000       0.02000000      99.00000000       0.50000000  1.50000000E-05  0.03  2       1.00000000  0
  9  1 9 8     100.00000000       5.00000000       0.02000000      99.00000000       0.50000000  1.50000000E-05  0.03  2       1.00000000  0
  10  1 10 8     100.00000000       5.00000000       0.02000000      99.00000000       0.50000000  1.50000000E-05  0.03  1       1.00000000  0
END packagedata

BEGIN connectiondata
  1  -2
  2  1  -3
  3  2  -4
  4  3  -5
  5  4  -6
  6  5  -7
  7  6  -8
  8  7  -9
  9  8  -10
  10  9
END connectiondata

BEGIN period  1
  1  INFLOW  50
END period  1

BEGIN period  2
  1  INFLOW  50
END period  2

BEGIN period  3
  1  INFLOW  50
END period  3

BEGIN period  4
  1  INFLOW  50
END period  4

BEGIN period  5
  1  INFLOW  50
END period  5

BEGIN period  6
  1  INFLOW  50
END period  6

BEGIN period  7
  1  INFLOW  50
END period  7

BEGIN period  8
  1  INFLOW  50
END period  8

BEGIN period  9
  1  INFLOW  50
END period  9

BEGIN period  10
  1  INFLOW  50
END period  10

BEGIN period  11
  1  INFLOW  50
END period  11

BEGIN period  12
  1  INFLOW  50
END period  12

