# File generated by Flopy version 3.3.6 on 05/20/2022 at 11:11:14.
BEGIN griddata
  strt
    CONSTANT      95.00000000
END griddata

