# File generated by Flopy version 3.3.6 on 05/31/2022 at 16:30:40.
BEGIN griddata
  strt
    CONSTANT      95.00000000
END griddata

