# File generated by Flopy version 3.3.6 on 05/20/2022 at 11:11:14.
BEGIN options
  PRINT_INPUT
  PRINT_FLOWS
  SAVE_FLOWS
  NEWTON  UNDER_RELAXATION
END options

BEGIN packages
  DIS6  etdemand_well.dis  dis
  IC6  etdemand_well.ic  ic
  NPF6  etdemand_well.npf  npf
  STO6  etdemand_well.sto  sto
  WEL6  etdemand_well.wel  wel_0
  UZF6  etdemand_well.uzf  uzf_0
  OC6  etdemand_well.oc  oc
  MVR6  etdemand_well.mvr  mvr
END packages

