# File generated by Flopy version 3.3.6 on 06/03/2022 at 12:46:00.
BEGIN options
END options

BEGIN continuous  FILEOUT  etdemand_sup.obs.out
  sw_outflow  outflow  9
END continuous  FILEOUT  etdemand_sup.obs.out

