# File generated by Flopy version 3.3.6 on 07/15/2022 at 11:30:38.
BEGIN options
  PRINT_OPTION  all
  COMPLEXITY  complex
  NO_PTC  ALL
END options

BEGIN nonlinear
  OUTER_DVCLOSE       0.05000000
  OUTER_MAXIMUM  213
  UNDER_RELAXATION  dbd
  UNDER_RELAXATION_GAMMA       0.00000000
  UNDER_RELAXATION_THETA       0.97000000
  UNDER_RELAXATION_KAPPA  1.00000000E-04
END nonlinear

BEGIN linear
  inner_rclose  1.00000000E-10  L2NORM_RCLOSE
  LINEAR_ACCELERATION  bicgstab
  SCALING_METHOD  l2norm
END linear

