# File generated by Flopy version 3.3.6 on 05/31/2022 at 16:30:40.
BEGIN options
  LENGTH_UNITS  meters
END options

BEGIN dimensions
  NLAY  1
  NROW  10
  NCOL  10
END dimensions

BEGIN griddata
  delr
    CONSTANT      63.60000000
  delc
    CONSTANT      63.60000000
  top
    CONSTANT     100.00000000
  botm
    CONSTANT       0.00000000
END griddata

