# File generated by Flopy version 3.3.6 on 05/31/2022 at 16:30:40.
BEGIN options
  PRINT_INPUT
  PRINT_FLOWS
  SAVE_FLOWS
  NEWTON  UNDER_RELAXATION
END options

BEGIN packages
  DIS6  etdemand_div.dis  dis
  IC6  etdemand_div.ic  ic
  NPF6  etdemand_div.npf  npf
  STO6  etdemand_div.sto  sto
  SFR6  etdemand_div.sfr  sfr_0
  UZF6  etdemand_div.uzf  uzf_0
  OC6  etdemand_div.oc  oc
  MVR6  etdemand_div.mvr  mvr
END packages

