# File generated by Flopy version 3.3.6 on 06/03/2022 at 12:46:00.
BEGIN options
  MOVER
  SIMULATE_ET
  LINEAR_GWET
  SIMULATE_GWSEEP
  UNSAT_ETWC
END options

BEGIN dimensions
  NUZFCELLS  100
  NTRAILWAVES  7
  NWAVESETS  40
END dimensions

BEGIN packagedata
  1  1 1 1  1  1       0.33000000       8.64000000       0.05000000       0.35000000       0.08000000       5.00000000
  2  1 1 2  1  1       0.33000000       8.64000000       0.05000000       0.35000000       0.08000000       5.00000000
  3  1 1 3  1  1       0.33000000       8.64000000       0.05000000       0.35000000       0.08000000       5.00000000
  4  1 1 4  1  1       0.33000000       8.64000000       0.05000000       0.35000000       0.08000000       5.00000000
  5  1 1 5  1  1       0.33000000       8.64000000       0.05000000       0.35000000       0.08000000       5.00000000
  6  1 1 6  1  1       0.33000000       8.64000000       0.05000000       0.35000000       0.08000000       5.00000000
  7  1 1 7  1  1       0.33000000       8.64000000       0.05000000       0.35000000       0.08000000       5.00000000
  8  1 1 8  1  1       0.33000000       8.64000000       0.05000000       0.35000000       0.08000000       5.00000000
  9  1 1 9  1  1       0.33000000       8.64000000       0.05000000       0.35000000       0.08000000       5.00000000
  10  1 1 10  1  1       0.33000000       8.64000000       0.05000000       0.35000000       0.08000000       5.00000000
  11  1 2 1  1  1       0.33000000       8.64000000       0.05000000       0.35000000       0.08000000       5.00000000
  12  1 2 2  1  1       0.33000000       8.64000000       0.05000000       0.35000000       0.08000000       5.00000000
  13  1 2 3  1  1       0.33000000       8.64000000       0.05000000       0.35000000       0.08000000       5.00000000
  14  1 2 4  1  1       0.33000000       8.64000000       0.05000000       0.35000000       0.08000000       5.00000000
  15  1 2 5  1  1       0.33000000       8.64000000       0.05000000       0.35000000       0.08000000       5.00000000
  16  1 2 6  1  1       0.33000000       8.64000000       0.05000000       0.35000000       0.08000000       5.00000000
  17  1 2 7  1  1       0.33000000       8.64000000       0.05000000       0.35000000       0.08000000       5.00000000
  18  1 2 8  1  1       0.33000000       8.64000000       0.05000000       0.35000000       0.08000000       5.00000000
  19  1 2 9  1  1       0.33000000       8.64000000       0.05000000       0.35000000       0.08000000       5.00000000
  20  1 2 10  1  1       0.33000000       8.64000000       0.05000000       0.35000000       0.08000000       5.00000000
  21  1 3 1  1  1       0.33000000       8.64000000       0.05000000       0.35000000       0.08000000       5.00000000
  22  1 3 2  1  1       0.33000000       8.64000000       0.05000000       0.35000000       0.08000000       5.00000000
  23  1 3 3  1  1       0.33000000       8.64000000       0.05000000       0.35000000       0.08000000       5.00000000
  24  1 3 4  1  1       0.33000000       8.64000000       0.05000000       0.35000000       0.08000000       5.00000000
  25  1 3 5  1  1       0.33000000       8.64000000       0.05000000       0.35000000       0.08000000       5.00000000
  26  1 3 6  1  1       0.33000000       8.64000000       0.05000000       0.35000000       0.08000000       5.00000000
  27  1 3 7  1  1       0.33000000       8.64000000       0.05000000       0.35000000       0.08000000       5.00000000
  28  1 3 8  1  1       0.33000000       8.64000000       0.05000000       0.35000000       0.08000000       5.00000000
  29  1 3 9  1  1       0.33000000       8.64000000       0.05000000       0.35000000       0.08000000       5.00000000
  30  1 3 10  1  1       0.33000000       8.64000000       0.05000000       0.35000000       0.08000000       5.00000000
  31  1 4 1  1  1       0.33000000       8.64000000       0.05000000       0.35000000       0.08000000       5.00000000
  32  1 4 2  1  1       0.33000000       8.64000000       0.05000000       0.35000000       0.08000000       5.00000000
  33  1 4 3  1  1       0.33000000       8.64000000       0.05000000       0.35000000       0.08000000       5.00000000
  34  1 4 4  1  1       0.33000000       8.64000000       0.05000000       0.35000000       0.08000000       5.00000000
  35  1 4 5  1  1       0.33000000       8.64000000       0.05000000       0.35000000       0.08000000       5.00000000
  36  1 4 6  1  1       0.33000000       8.64000000       0.05000000       0.35000000       0.08000000       5.00000000
  37  1 4 7  1  1       0.33000000       8.64000000       0.05000000       0.35000000       0.08000000       5.00000000
  38  1 4 8  1  1       0.33000000       8.64000000       0.05000000       0.35000000       0.08000000       5.00000000
  39  1 4 9  1  1       0.33000000       8.64000000       0.05000000       0.35000000       0.08000000       5.00000000
  40  1 4 10  1  1       0.33000000       8.64000000       0.05000000       0.35000000       0.08000000       5.00000000
  41  1 5 1  1  1       0.33000000       8.64000000       0.05000000       0.35000000       0.08000000       5.00000000
  42  1 5 2  1  1       0.33000000       8.64000000       0.05000000       0.35000000       0.08000000       5.00000000
  43  1 5 3  1  1       0.33000000       8.64000000       0.05000000       0.35000000       0.08000000       5.00000000
  44  1 5 4  1  1       0.33000000       8.64000000       0.05000000       0.35000000       0.08000000       5.00000000
  45  1 5 5  1  1       0.33000000       8.64000000       0.05000000       0.35000000       0.08000000       5.00000000
  46  1 5 6  1  1       0.33000000       8.64000000       0.05000000       0.35000000       0.08000000       5.00000000
  47  1 5 7  1  1       0.33000000       8.64000000       0.05000000       0.35000000       0.08000000       5.00000000
  48  1 5 8  1  1       0.33000000       8.64000000       0.05000000       0.35000000       0.08000000       5.00000000
  49  1 5 9  1  1       0.33000000       8.64000000       0.05000000       0.35000000       0.08000000       5.00000000
  50  1 5 10  1  1       0.33000000       8.64000000       0.05000000       0.35000000       0.08000000       5.00000000
  51  1 6 1  1  1       0.33000000       8.64000000       0.05000000       0.35000000       0.08000000       5.00000000
  52  1 6 2  1  1       0.33000000       8.64000000       0.05000000       0.35000000       0.08000000       5.00000000
  53  1 6 3  1  1       0.33000000       8.64000000       0.05000000       0.35000000       0.08000000       5.00000000
  54  1 6 4  1  1       0.33000000       8.64000000       0.05000000       0.35000000       0.08000000       5.00000000
  55  1 6 5  1  1       0.33000000       8.64000000       0.05000000       0.35000000       0.08000000       5.00000000
  56  1 6 6  1  1       0.33000000       8.64000000       0.05000000       0.35000000       0.08000000       5.00000000
  57  1 6 7  1  1       0.33000000       8.64000000       0.05000000       0.35000000       0.08000000       5.00000000
  58  1 6 8  1  1       0.33000000       8.64000000       0.05000000       0.35000000       0.08000000       5.00000000
  59  1 6 9  1  1       0.33000000       8.64000000       0.05000000       0.35000000       0.08000000       5.00000000
  60  1 6 10  1  1       0.33000000       8.64000000       0.05000000       0.35000000       0.08000000       5.00000000
  61  1 7 1  1  1       0.33000000       8.64000000       0.05000000       0.35000000       0.08000000       5.00000000
  62  1 7 2  1  1       0.33000000       8.64000000       0.05000000       0.35000000       0.08000000       5.00000000
  63  1 7 3  1  1       0.33000000       8.64000000       0.05000000       0.35000000       0.08000000       5.00000000
  64  1 7 4  1  1       0.33000000       8.64000000       0.05000000       0.35000000       0.08000000       5.00000000
  65  1 7 5  1  1       0.33000000       8.64000000       0.05000000       0.35000000       0.08000000       5.00000000
  66  1 7 6  1  1       0.33000000       8.64000000       0.05000000       0.35000000       0.08000000       5.00000000
  67  1 7 7  1  1       0.33000000       8.64000000       0.05000000       0.35000000       0.08000000       5.00000000
  68  1 7 8  1  1       0.33000000       8.64000000       0.05000000       0.35000000       0.08000000       5.00000000
  69  1 7 9  1  1       0.33000000       8.64000000       0.05000000       0.35000000       0.08000000       5.00000000
  70  1 7 10  1  1       0.33000000       8.64000000       0.05000000       0.35000000       0.08000000       5.00000000
  71  1 8 1  1  1       0.33000000       8.64000000       0.05000000       0.35000000       0.08000000       5.00000000
  72  1 8 2  1  1       0.33000000       8.64000000       0.05000000       0.35000000       0.08000000       5.00000000
  73  1 8 3  1  1       0.33000000       8.64000000       0.05000000       0.35000000       0.08000000       5.00000000
  74  1 8 4  1  1       0.33000000       8.64000000       0.05000000       0.35000000       0.08000000       5.00000000
  75  1 8 5  1  1       0.33000000       8.64000000       0.05000000       0.35000000       0.08000000       5.00000000
  76  1 8 6  1  1       0.33000000       8.64000000       0.05000000       0.35000000       0.08000000       5.00000000
  77  1 8 7  1  1       0.33000000       8.64000000       0.05000000       0.35000000       0.08000000       5.00000000
  78  1 8 8  1  1       0.33000000       8.64000000       0.05000000       0.35000000       0.08000000       5.00000000
  79  1 8 9  1  1       0.33000000       8.64000000       0.05000000       0.35000000       0.08000000       5.00000000
  80  1 8 10  1  1       0.33000000       8.64000000       0.05000000       0.35000000       0.08000000       5.00000000
  81  1 9 1  1  1       0.33000000       8.64000000       0.05000000       0.35000000       0.08000000       5.00000000
  82  1 9 2  1  1       0.33000000       8.64000000       0.05000000       0.35000000       0.08000000       5.00000000
  83  1 9 3  1  1       0.33000000       8.64000000       0.05000000       0.35000000       0.08000000       5.00000000
  84  1 9 4  1  1       0.33000000       8.64000000       0.05000000       0.35000000       0.08000000       5.00000000
  85  1 9 5  1  1       0.33000000       8.64000000       0.05000000       0.35000000       0.08000000       5.00000000
  86  1 9 6  1  1       0.33000000       8.64000000       0.05000000       0.35000000       0.08000000       5.00000000
  87  1 9 7  1  1       0.33000000       8.64000000       0.05000000       0.35000000       0.08000000       5.00000000
  88  1 9 8  1  1       0.33000000       8.64000000       0.05000000       0.35000000       0.08000000       5.00000000
  89  1 9 9  1  1       0.33000000       8.64000000       0.05000000       0.35000000       0.08000000       5.00000000
  90  1 9 10  1  1       0.33000000       8.64000000       0.05000000       0.35000000       0.08000000       5.00000000
  91  1 10 1  1  1       0.33000000       8.64000000       0.05000000       0.35000000       0.08000000       5.00000000
  92  1 10 2  1  1       0.33000000       8.64000000       0.05000000       0.35000000       0.08000000       5.00000000
  93  1 10 3  1  1       0.33000000       8.64000000       0.05000000       0.35000000       0.08000000       5.00000000
  94  1 10 4  1  1       0.33000000       8.64000000       0.05000000       0.35000000       0.08000000       5.00000000
  95  1 10 5  1  1       0.33000000       8.64000000       0.05000000       0.35000000       0.08000000       5.00000000
  96  1 10 6  1  1       0.33000000       8.64000000       0.05000000       0.35000000       0.08000000       5.00000000
  97  1 10 7  1  1       0.33000000       8.64000000       0.05000000       0.35000000       0.08000000       5.00000000
  98  1 10 8  1  1       0.33000000       8.64000000       0.05000000       0.35000000       0.08000000       5.00000000
  99  1 10 9  1  1       0.33000000       8.64000000       0.05000000       0.35000000       0.08000000       5.00000000
  100  1 10 10  1  1       0.33000000       8.64000000       0.05000000       0.35000000       0.08000000       5.00000000
END packagedata

BEGIN period  1
  1  0.002785  0.0010485  4  0.06  -1.1  -75.0  1.0
  2  0.002785  0.0010485  4  0.06  -1.1  -75.0  1.0
  3  0.002785  0.0010485  4  0.06  -1.1  -75.0  1.0
  4  0.002785  0.0010485  4  0.06  -1.1  -75.0  1.0
  5  0.002785  0.0010485  4  0.06  -1.1  -75.0  1.0
  6  0.002785  0.0010485  4  0.06  -1.1  -75.0  1.0
  7  0.002785  0.0010485  4  0.06  -1.1  -75.0  1.0
  8  0.002785  0.0010485  4  0.06  -1.1  -75.0  1.0
  9  0.002785  0.0010485  4  0.06  -1.1  -75.0  1.0
  10  0.002785  0.0010485  4  0.06  -1.1  -75.0  1.0
  11  0.002785  0.0010485  4  0.06  -1.1  -75.0  1.0
  12  0.002785  0.0010485  4  0.06  -1.1  -75.0  1.0
  13  0.002785  0.0010485  4  0.06  -1.1  -75.0  1.0
  14  0.002785  0.0010485  4  0.06  -1.1  -75.0  1.0
  15  0.002785  0.0010485  4  0.06  -1.1  -75.0  1.0
  16  0.002785  0.0010485  4  0.06  -1.1  -75.0  1.0
  17  0.002785  0.0010485  4  0.06  -1.1  -75.0  1.0
  18  0.002785  0.0010485  4  0.06  -1.1  -75.0  1.0
  19  0.002785  0.0010485  4  0.06  -1.1  -75.0  1.0
  20  0.002785  0.0010485  4  0.06  -1.1  -75.0  1.0
  21  0.002785  0.0010485  4  0.06  -1.1  -75.0  1.0
  22  0.002785  0.0010485  4  0.06  -1.1  -75.0  1.0
  23  0.002785  0.0010485  4  0.06  -1.1  -75.0  1.0
  24  0.002785  0.0010485  4  0.06  -1.1  -75.0  1.0
  25  0.002785  0.0010485  4  0.06  -1.1  -75.0  1.0
  26  0.002785  0.0010485  4  0.06  -1.1  -75.0  1.0
  27  0.002785  0.0010485  4  0.06  -1.1  -75.0  1.0
  28  0.002785  0.0010485  4  0.06  -1.1  -75.0  1.0
  29  0.002785  0.0010485  4  0.06  -1.1  -75.0  1.0
  30  0.002785  0.0010485  4  0.06  -1.1  -75.0  1.0
  31  0.002785  0.0010485  4  0.06  -1.1  -75.0  1.0
  32  0.002785  0.0010485  4  0.06  -1.1  -75.0  1.0
  33  0.002785  0.0010485  4  0.06  -1.1  -75.0  1.0
  34  0.002785  0.0010485  4  0.06  -1.1  -75.0  1.0
  35  0.002785  0.0010485  4  0.06  -1.1  -75.0  1.0
  36  0.002785  0.0010485  4  0.06  -1.1  -75.0  1.0
  37  0.002785  0.0010485  4  0.06  -1.1  -75.0  1.0
  38  0.002785  0.0010485  4  0.06  -1.1  -75.0  1.0
  39  0.002785  0.0010485  4  0.06  -1.1  -75.0  1.0
  40  0.002785  0.0010485  4  0.06  -1.1  -75.0  1.0
  41  0.002785  0.0010485  4  0.06  -1.1  -75.0  1.0
  42  0.002785  0.0010485  4  0.06  -1.1  -75.0  1.0
  43  0.002785  0.0010485  4  0.06  -1.1  -75.0  1.0
  44  0.002785  0.0010485  4  0.06  -1.1  -75.0  1.0
  45  0.002785  0.0010485  4  0.06  -1.1  -75.0  1.0
  46  0.002785  0.0010485  4  0.06  -1.1  -75.0  1.0
  47  0.002785  0.0010485  4  0.06  -1.1  -75.0  1.0
  48  0.002785  0.0010485  4  0.06  -1.1  -75.0  1.0
  49  0.002785  0.0010485  4  0.06  -1.1  -75.0  1.0
  50  0.002785  0.0010485  4  0.06  -1.1  -75.0  1.0
  51  0.002785  0.0010485  4  0.06  -1.1  -75.0  1.0
  52  0.002785  0.0010485  4  0.06  -1.1  -75.0  1.0
  53  0.002785  0.0010485  4  0.06  -1.1  -75.0  1.0
  54  0.002785  0.0010485  4  0.06  -1.1  -75.0  1.0
  55  0.002785  0.0010485  4  0.06  -1.1  -75.0  1.0
  56  0.002785  0.0010485  4  0.06  -1.1  -75.0  1.0
  57  0.002785  0.0010485  4  0.06  -1.1  -75.0  1.0
  58  0.002785  0.0010485  4  0.06  -1.1  -75.0  1.0
  59  0.002785  0.0010485  4  0.06  -1.1  -75.0  1.0
  60  0.002785  0.0010485  4  0.06  -1.1  -75.0  1.0
  61  0.002785  0.0010485  4  0.06  -1.1  -75.0  1.0
  62  0.002785  0.0010485  4  0.06  -1.1  -75.0  1.0
  63  0.002785  0.0010485  4  0.06  -1.1  -75.0  1.0
  64  0.002785  0.0010485  4  0.06  -1.1  -75.0  1.0
  65  0.002785  0.0010485  4  0.06  -1.1  -75.0  1.0
  66  0.002785  0.0010485  4  0.06  -1.1  -75.0  1.0
  67  0.002785  0.0010485  4  0.06  -1.1  -75.0  1.0
  68  0.002785  0.0010485  4  0.06  -1.1  -75.0  1.0
  69  0.002785  0.0010485  4  0.06  -1.1  -75.0  1.0
  70  0.002785  0.0010485  4  0.06  -1.1  -75.0  1.0
  71  0.002785  0.0010485  4  0.06  -1.1  -75.0  1.0
  72  0.002785  0.0010485  4  0.06  -1.1  -75.0  1.0
  73  0.002785  0.0010485  4  0.06  -1.1  -75.0  1.0
  74  0.002785  0.0010485  4  0.06  -1.1  -75.0  1.0
  75  0.002785  0.0010485  4  0.06  -1.1  -75.0  1.0
  76  0.002785  0.0010485  4  0.06  -1.1  -75.0  1.0
  77  0.002785  0.0010485  4  0.06  -1.1  -75.0  1.0
  78  0.002785  0.0010485  4  0.06  -1.1  -75.0  1.0
  79  0.002785  0.0010485  4  0.06  -1.1  -75.0  1.0
  80  0.002785  0.0010485  4  0.06  -1.1  -75.0  1.0
  81  0.002785  0.0010485  4  0.06  -1.1  -75.0  1.0
  82  0.002785  0.0010485  4  0.06  -1.1  -75.0  1.0
  83  0.002785  0.0010485  4  0.06  -1.1  -75.0  1.0
  84  0.002785  0.0010485  4  0.06  -1.1  -75.0  1.0
  85  0.002785  0.0010485  4  0.06  -1.1  -75.0  1.0
  86  0.002785  0.0010485  4  0.06  -1.1  -75.0  1.0
  87  0.002785  0.0010485  4  0.06  -1.1  -75.0  1.0
  88  0.002785  0.0010485  4  0.06  -1.1  -75.0  1.0
  89  0.002785  0.0010485  4  0.06  -1.1  -75.0  1.0
  90  0.002785  0.0010485  4  0.06  -1.1  -75.0  1.0
  91  0.002785  0.0010485  4  0.06  -1.1  -75.0  1.0
  92  0.002785  0.0010485  4  0.06  -1.1  -75.0  1.0
  93  0.002785  0.0010485  4  0.06  -1.1  -75.0  1.0
  94  0.002785  0.0010485  4  0.06  -1.1  -75.0  1.0
  95  0.002785  0.0010485  4  0.06  -1.1  -75.0  1.0
  96  0.002785  0.0010485  4  0.06  -1.1  -75.0  1.0
  97  0.002785  0.0010485  4  0.06  -1.1  -75.0  1.0
  98  0.002785  0.0010485  4  0.06  -1.1  -75.0  1.0
  99  0.002785  0.0010485  4  0.06  -1.1  -75.0  1.0
  100  0.002785  0.0010485  4  0.06  -1.1  -75.0  1.0
END period  1

BEGIN period  2
  1  0.0032485  0.00186  4  0.06  -1.1  -75.0  1.0
  2  0.0032485  0.00186  4  0.06  -1.1  -75.0  1.0
  3  0.0032485  0.00186  4  0.06  -1.1  -75.0  1.0
  4  0.0032485  0.00186  4  0.06  -1.1  -75.0  1.0
  5  0.0032485  0.00186  4  0.06  -1.1  -75.0  1.0
  6  0.0032485  0.00186  4  0.06  -1.1  -75.0  1.0
  7  0.0032485  0.00186  4  0.06  -1.1  -75.0  1.0
  8  0.0032485  0.00186  4  0.06  -1.1  -75.0  1.0
  9  0.0032485  0.00186  4  0.06  -1.1  -75.0  1.0
  10  0.0032485  0.00186  4  0.06  -1.1  -75.0  1.0
  11  0.0032485  0.00186  4  0.06  -1.1  -75.0  1.0
  12  0.0032485  0.00186  4  0.06  -1.1  -75.0  1.0
  13  0.0032485  0.00186  4  0.06  -1.1  -75.0  1.0
  14  0.0032485  0.00186  4  0.06  -1.1  -75.0  1.0
  15  0.0032485  0.00186  4  0.06  -1.1  -75.0  1.0
  16  0.0032485  0.00186  4  0.06  -1.1  -75.0  1.0
  17  0.0032485  0.00186  4  0.06  -1.1  -75.0  1.0
  18  0.0032485  0.00186  4  0.06  -1.1  -75.0  1.0
  19  0.0032485  0.00186  4  0.06  -1.1  -75.0  1.0
  20  0.0032485  0.00186  4  0.06  -1.1  -75.0  1.0
  21  0.0032485  0.00186  4  0.06  -1.1  -75.0  1.0
  22  0.0032485  0.00186  4  0.06  -1.1  -75.0  1.0
  23  0.0032485  0.00186  4  0.06  -1.1  -75.0  1.0
  24  0.0032485  0.00186  4  0.06  -1.1  -75.0  1.0
  25  0.0032485  0.00186  4  0.06  -1.1  -75.0  1.0
  26  0.0032485  0.00186  4  0.06  -1.1  -75.0  1.0
  27  0.0032485  0.00186  4  0.06  -1.1  -75.0  1.0
  28  0.0032485  0.00186  4  0.06  -1.1  -75.0  1.0
  29  0.0032485  0.00186  4  0.06  -1.1  -75.0  1.0
  30  0.0032485  0.00186  4  0.06  -1.1  -75.0  1.0
  31  0.0032485  0.00186  4  0.06  -1.1  -75.0  1.0
  32  0.0032485  0.00186  4  0.06  -1.1  -75.0  1.0
  33  0.0032485  0.00186  4  0.06  -1.1  -75.0  1.0
  34  0.0032485  0.00186  4  0.06  -1.1  -75.0  1.0
  35  0.0032485  0.00186  4  0.06  -1.1  -75.0  1.0
  36  0.0032485  0.00186  4  0.06  -1.1  -75.0  1.0
  37  0.0032485  0.00186  4  0.06  -1.1  -75.0  1.0
  38  0.0032485  0.00186  4  0.06  -1.1  -75.0  1.0
  39  0.0032485  0.00186  4  0.06  -1.1  -75.0  1.0
  40  0.0032485  0.00186  4  0.06  -1.1  -75.0  1.0
  41  0.0032485  0.00186  4  0.06  -1.1  -75.0  1.0
  42  0.0032485  0.00186  4  0.06  -1.1  -75.0  1.0
  43  0.0032485  0.00186  4  0.06  -1.1  -75.0  1.0
  44  0.0032485  0.00186  4  0.06  -1.1  -75.0  1.0
  45  0.0032485  0.00186  4  0.06  -1.1  -75.0  1.0
  46  0.0032485  0.00186  4  0.06  -1.1  -75.0  1.0
  47  0.0032485  0.00186  4  0.06  -1.1  -75.0  1.0
  48  0.0032485  0.00186  4  0.06  -1.1  -75.0  1.0
  49  0.0032485  0.00186  4  0.06  -1.1  -75.0  1.0
  50  0.0032485  0.00186  4  0.06  -1.1  -75.0  1.0
  51  0.0032485  0.00186  4  0.06  -1.1  -75.0  1.0
  52  0.0032485  0.00186  4  0.06  -1.1  -75.0  1.0
  53  0.0032485  0.00186  4  0.06  -1.1  -75.0  1.0
  54  0.0032485  0.00186  4  0.06  -1.1  -75.0  1.0
  55  0.0032485  0.00186  4  0.06  -1.1  -75.0  1.0
  56  0.0032485  0.00186  4  0.06  -1.1  -75.0  1.0
  57  0.0032485  0.00186  4  0.06  -1.1  -75.0  1.0
  58  0.0032485  0.00186  4  0.06  -1.1  -75.0  1.0
  59  0.0032485  0.00186  4  0.06  -1.1  -75.0  1.0
  60  0.0032485  0.00186  4  0.06  -1.1  -75.0  1.0
  61  0.0032485  0.00186  4  0.06  -1.1  -75.0  1.0
  62  0.0032485  0.00186  4  0.06  -1.1  -75.0  1.0
  63  0.0032485  0.00186  4  0.06  -1.1  -75.0  1.0
  64  0.0032485  0.00186  4  0.06  -1.1  -75.0  1.0
  65  0.0032485  0.00186  4  0.06  -1.1  -75.0  1.0
  66  0.0032485  0.00186  4  0.06  -1.1  -75.0  1.0
  67  0.0032485  0.00186  4  0.06  -1.1  -75.0  1.0
  68  0.0032485  0.00186  4  0.06  -1.1  -75.0  1.0
  69  0.0032485  0.00186  4  0.06  -1.1  -75.0  1.0
  70  0.0032485  0.00186  4  0.06  -1.1  -75.0  1.0
  71  0.0032485  0.00186  4  0.06  -1.1  -75.0  1.0
  72  0.0032485  0.00186  4  0.06  -1.1  -75.0  1.0
  73  0.0032485  0.00186  4  0.06  -1.1  -75.0  1.0
  74  0.0032485  0.00186  4  0.06  -1.1  -75.0  1.0
  75  0.0032485  0.00186  4  0.06  -1.1  -75.0  1.0
  76  0.0032485  0.00186  4  0.06  -1.1  -75.0  1.0
  77  0.0032485  0.00186  4  0.06  -1.1  -75.0  1.0
  78  0.0032485  0.00186  4  0.06  -1.1  -75.0  1.0
  79  0.0032485  0.00186  4  0.06  -1.1  -75.0  1.0
  80  0.0032485  0.00186  4  0.06  -1.1  -75.0  1.0
  81  0.0032485  0.00186  4  0.06  -1.1  -75.0  1.0
  82  0.0032485  0.00186  4  0.06  -1.1  -75.0  1.0
  83  0.0032485  0.00186  4  0.06  -1.1  -75.0  1.0
  84  0.0032485  0.00186  4  0.06  -1.1  -75.0  1.0
  85  0.0032485  0.00186  4  0.06  -1.1  -75.0  1.0
  86  0.0032485  0.00186  4  0.06  -1.1  -75.0  1.0
  87  0.0032485  0.00186  4  0.06  -1.1  -75.0  1.0
  88  0.0032485  0.00186  4  0.06  -1.1  -75.0  1.0
  89  0.0032485  0.00186  4  0.06  -1.1  -75.0  1.0
  90  0.0032485  0.00186  4  0.06  -1.1  -75.0  1.0
  91  0.0032485  0.00186  4  0.06  -1.1  -75.0  1.0
  92  0.0032485  0.00186  4  0.06  -1.1  -75.0  1.0
  93  0.0032485  0.00186  4  0.06  -1.1  -75.0  1.0
  94  0.0032485  0.00186  4  0.06  -1.1  -75.0  1.0
  95  0.0032485  0.00186  4  0.06  -1.1  -75.0  1.0
  96  0.0032485  0.00186  4  0.06  -1.1  -75.0  1.0
  97  0.0032485  0.00186  4  0.06  -1.1  -75.0  1.0
  98  0.0032485  0.00186  4  0.06  -1.1  -75.0  1.0
  99  0.0032485  0.00186  4  0.06  -1.1  -75.0  1.0
  100  0.0032485  0.00186  4  0.06  -1.1  -75.0  1.0
END period  2

BEGIN period  3
  1  0.0021749  0.003014  4  0.06  -1.1  -75.0  1.0
  2  0.0021749  0.003014  4  0.06  -1.1  -75.0  1.0
  3  0.0021749  0.003014  4  0.06  -1.1  -75.0  1.0
  4  0.0021749  0.003014  4  0.06  -1.1  -75.0  1.0
  5  0.0021749  0.003014  4  0.06  -1.1  -75.0  1.0
  6  0.0021749  0.003014  4  0.06  -1.1  -75.0  1.0
  7  0.0021749  0.003014  4  0.06  -1.1  -75.0  1.0
  8  0.0021749  0.003014  4  0.06  -1.1  -75.0  1.0
  9  0.0021749  0.003014  4  0.06  -1.1  -75.0  1.0
  10  0.0021749  0.003014  4  0.06  -1.1  -75.0  1.0
  11  0.0021749  0.003014  4  0.06  -1.1  -75.0  1.0
  12  0.0021749  0.003014  4  0.06  -1.1  -75.0  1.0
  13  0.0021749  0.003014  4  0.06  -1.1  -75.0  1.0
  14  0.0021749  0.003014  4  0.06  -1.1  -75.0  1.0
  15  0.0021749  0.003014  4  0.06  -1.1  -75.0  1.0
  16  0.0021749  0.003014  4  0.06  -1.1  -75.0  1.0
  17  0.0021749  0.003014  4  0.06  -1.1  -75.0  1.0
  18  0.0021749  0.003014  4  0.06  -1.1  -75.0  1.0
  19  0.0021749  0.003014  4  0.06  -1.1  -75.0  1.0
  20  0.0021749  0.003014  4  0.06  -1.1  -75.0  1.0
  21  0.0021749  0.003014  4  0.06  -1.1  -75.0  1.0
  22  0.0021749  0.003014  4  0.06  -1.1  -75.0  1.0
  23  0.0021749  0.003014  4  0.06  -1.1  -75.0  1.0
  24  0.0021749  0.003014  4  0.06  -1.1  -75.0  1.0
  25  0.0021749  0.003014  4  0.06  -1.1  -75.0  1.0
  26  0.0021749  0.003014  4  0.06  -1.1  -75.0  1.0
  27  0.0021749  0.003014  4  0.06  -1.1  -75.0  1.0
  28  0.0021749  0.003014  4  0.06  -1.1  -75.0  1.0
  29  0.0021749  0.003014  4  0.06  -1.1  -75.0  1.0
  30  0.0021749  0.003014  4  0.06  -1.1  -75.0  1.0
  31  0.0021749  0.003014  4  0.06  -1.1  -75.0  1.0
  32  0.0021749  0.003014  4  0.06  -1.1  -75.0  1.0
  33  0.0021749  0.003014  4  0.06  -1.1  -75.0  1.0
  34  0.0021749  0.003014  4  0.06  -1.1  -75.0  1.0
  35  0.0021749  0.003014  4  0.06  -1.1  -75.0  1.0
  36  0.0021749  0.003014  4  0.06  -1.1  -75.0  1.0
  37  0.0021749  0.003014  4  0.06  -1.1  -75.0  1.0
  38  0.0021749  0.003014  4  0.06  -1.1  -75.0  1.0
  39  0.0021749  0.003014  4  0.06  -1.1  -75.0  1.0
  40  0.0021749  0.003014  4  0.06  -1.1  -75.0  1.0
  41  0.0021749  0.003014  4  0.06  -1.1  -75.0  1.0
  42  0.0021749  0.003014  4  0.06  -1.1  -75.0  1.0
  43  0.0021749  0.003014  4  0.06  -1.1  -75.0  1.0
  44  0.0021749  0.003014  4  0.06  -1.1  -75.0  1.0
  45  0.0021749  0.003014  4  0.06  -1.1  -75.0  1.0
  46  0.0021749  0.003014  4  0.06  -1.1  -75.0  1.0
  47  0.0021749  0.003014  4  0.06  -1.1  -75.0  1.0
  48  0.0021749  0.003014  4  0.06  -1.1  -75.0  1.0
  49  0.0021749  0.003014  4  0.06  -1.1  -75.0  1.0
  50  0.0021749  0.003014  4  0.06  -1.1  -75.0  1.0
  51  0.0021749  0.003014  4  0.06  -1.1  -75.0  1.0
  52  0.0021749  0.003014  4  0.06  -1.1  -75.0  1.0
  53  0.0021749  0.003014  4  0.06  -1.1  -75.0  1.0
  54  0.0021749  0.003014  4  0.06  -1.1  -75.0  1.0
  55  0.0021749  0.003014  4  0.06  -1.1  -75.0  1.0
  56  0.0021749  0.003014  4  0.06  -1.1  -75.0  1.0
  57  0.0021749  0.003014  4  0.06  -1.1  -75.0  1.0
  58  0.0021749  0.003014  4  0.06  -1.1  -75.0  1.0
  59  0.0021749  0.003014  4  0.06  -1.1  -75.0  1.0
  60  0.0021749  0.003014  4  0.06  -1.1  -75.0  1.0
  61  0.0021749  0.003014  4  0.06  -1.1  -75.0  1.0
  62  0.0021749  0.003014  4  0.06  -1.1  -75.0  1.0
  63  0.0021749  0.003014  4  0.06  -1.1  -75.0  1.0
  64  0.0021749  0.003014  4  0.06  -1.1  -75.0  1.0
  65  0.0021749  0.003014  4  0.06  -1.1  -75.0  1.0
  66  0.0021749  0.003014  4  0.06  -1.1  -75.0  1.0
  67  0.0021749  0.003014  4  0.06  -1.1  -75.0  1.0
  68  0.0021749  0.003014  4  0.06  -1.1  -75.0  1.0
  69  0.0021749  0.003014  4  0.06  -1.1  -75.0  1.0
  70  0.0021749  0.003014  4  0.06  -1.1  -75.0  1.0
  71  0.0021749  0.003014  4  0.06  -1.1  -75.0  1.0
  72  0.0021749  0.003014  4  0.06  -1.1  -75.0  1.0
  73  0.0021749  0.003014  4  0.06  -1.1  -75.0  1.0
  74  0.0021749  0.003014  4  0.06  -1.1  -75.0  1.0
  75  0.0021749  0.003014  4  0.06  -1.1  -75.0  1.0
  76  0.0021749  0.003014  4  0.06  -1.1  -75.0  1.0
  77  0.0021749  0.003014  4  0.06  -1.1  -75.0  1.0
  78  0.0021749  0.003014  4  0.06  -1.1  -75.0  1.0
  79  0.0021749  0.003014  4  0.06  -1.1  -75.0  1.0
  80  0.0021749  0.003014  4  0.06  -1.1  -75.0  1.0
  81  0.0021749  0.003014  4  0.06  -1.1  -75.0  1.0
  82  0.0021749  0.003014  4  0.06  -1.1  -75.0  1.0
  83  0.0021749  0.003014  4  0.06  -1.1  -75.0  1.0
  84  0.0021749  0.003014  4  0.06  -1.1  -75.0  1.0
  85  0.0021749  0.003014  4  0.06  -1.1  -75.0  1.0
  86  0.0021749  0.003014  4  0.06  -1.1  -75.0  1.0
  87  0.0021749  0.003014  4  0.06  -1.1  -75.0  1.0
  88  0.0021749  0.003014  4  0.06  -1.1  -75.0  1.0
  89  0.0021749  0.003014  4  0.06  -1.1  -75.0  1.0
  90  0.0021749  0.003014  4  0.06  -1.1  -75.0  1.0
  91  0.0021749  0.003014  4  0.06  -1.1  -75.0  1.0
  92  0.0021749  0.003014  4  0.06  -1.1  -75.0  1.0
  93  0.0021749  0.003014  4  0.06  -1.1  -75.0  1.0
  94  0.0021749  0.003014  4  0.06  -1.1  -75.0  1.0
  95  0.0021749  0.003014  4  0.06  -1.1  -75.0  1.0
  96  0.0021749  0.003014  4  0.06  -1.1  -75.0  1.0
  97  0.0021749  0.003014  4  0.06  -1.1  -75.0  1.0
  98  0.0021749  0.003014  4  0.06  -1.1  -75.0  1.0
  99  0.0021749  0.003014  4  0.06  -1.1  -75.0  1.0
  100  0.0021749  0.003014  4  0.06  -1.1  -75.0  1.0
END period  3

BEGIN period  4
  1  0.00087368  0.0046281  4  0.06  -1.1  -75.0  1.0
  2  0.00087368  0.0046281  4  0.06  -1.1  -75.0  1.0
  3  0.00087368  0.0046281  4  0.06  -1.1  -75.0  1.0
  4  0.00087368  0.0046281  4  0.06  -1.1  -75.0  1.0
  5  0.00087368  0.0046281  4  0.06  -1.1  -75.0  1.0
  6  0.00087368  0.0046281  4  0.06  -1.1  -75.0  1.0
  7  0.00087368  0.0046281  4  0.06  -1.1  -75.0  1.0
  8  0.00087368  0.0046281  4  0.06  -1.1  -75.0  1.0
  9  0.00087368  0.0046281  4  0.06  -1.1  -75.0  1.0
  10  0.00087368  0.0046281  4  0.06  -1.1  -75.0  1.0
  11  0.00087368  0.0046281  4  0.06  -1.1  -75.0  1.0
  12  0.00087368  0.0046281  4  0.06  -1.1  -75.0  1.0
  13  0.00087368  0.0046281  4  0.06  -1.1  -75.0  1.0
  14  0.00087368  0.0046281  4  0.06  -1.1  -75.0  1.0
  15  0.00087368  0.0046281  4  0.06  -1.1  -75.0  1.0
  16  0.00087368  0.0046281  4  0.06  -1.1  -75.0  1.0
  17  0.00087368  0.0046281  4  0.06  -1.1  -75.0  1.0
  18  0.00087368  0.0046281  4  0.06  -1.1  -75.0  1.0
  19  0.00087368  0.0046281  4  0.06  -1.1  -75.0  1.0
  20  0.00087368  0.0046281  4  0.06  -1.1  -75.0  1.0
  21  0.00087368  0.0046281  4  0.06  -1.1  -75.0  1.0
  22  0.00087368  0.0046281  4  0.06  -1.1  -75.0  1.0
  23  0.00087368  0.0046281  4  0.06  -1.1  -75.0  1.0
  24  0.00087368  0.0046281  4  0.06  -1.1  -75.0  1.0
  25  0.00087368  0.0046281  4  0.06  -1.1  -75.0  1.0