# File generated by Flopy version 3.3.6 on 06/03/2022 at 12:46:00.
BEGIN griddata
  strt
    CONSTANT      95.00000000
END griddata

