# File generated by Flopy version 3.3.6 on 05/20/2022 at 14:22:09.
BEGIN options
END options

BEGIN continuous  FILEOUT  etdemand_sup.obs.out
  sw_outflow  outflow  9
END continuous  FILEOUT  etdemand_sup.obs.out

