# File generated by Flopy version 3.3.6 on 06/03/2022 at 12:46:00.
BEGIN options
  PRINT_INPUT
  PRINT_FLOWS
  SAVE_FLOWS
  NEWTON  UNDER_RELAXATION
END options

BEGIN packages
  DIS6  etdemand_sup.dis  dis
  IC6  etdemand_sup.ic  ic
  NPF6  etdemand_sup.npf  npf
  STO6  etdemand_sup.sto  sto
  WEL6  etdemand_sup.wel  wel_0
  SFR6  etdemand_sup.sfr  sfr_0
  UZF6  etdemand_sup.uzf  uzf_0
  OC6  etdemand_sup.oc  oc
  MVR6  etdemand_sup.mvr  mvr
END packages

