# File generated by Flopy version 3.3.6 on 05/20/2022 at 11:11:14.
BEGIN options
END options

BEGIN dimensions
  MAXMVR  4
  MAXPACKAGES  2
END dimensions

BEGIN packages
  wel_0
  uzf_0
END packages

BEGIN period  1
  wel_0  1  uzf_0  44  UPTO      50.00000000
  wel_0  1  uzf_0  45  UPTO      50.00000000
  wel_0  2  uzf_0  22  UPTO      25.00000000
  wel_0  2  uzf_0  23  UPTO      25.00000000
END period  1

BEGIN period  2
  wel_0  1  uzf_0  44  UPTO      50.00000000
  wel_0  1  uzf_0  45  UPTO      50.00000000
  wel_0  2  uzf_0  22  UPTO      25.00000000
  wel_0  2  uzf_0  23  UPTO      25.00000000
END period  2

BEGIN period  3
  wel_0  1  uzf_0  44  UPTO      50.00000000
  wel_0  1  uzf_0  45  UPTO      50.00000000
  wel_0  2  uzf_0  22  UPTO      25.00000000
  wel_0  2  uzf_0  23  UPTO      25.00000000
END period  3

BEGIN period  4
  wel_0  1  uzf_0  44  UPTO      50.00000000
  wel_0  1  uzf_0  45  UPTO      50.00000000
  wel_0  2  uzf_0  22  UPTO      25.00000000
  wel_0  2  uzf_0  23  UPTO      25.00000000
END period  4

BEGIN period  5
  wel_0  1  uzf_0  44  UPTO      50.00000000
  wel_0  1  uzf_0  45  UPTO      50.00000000
  wel_0  2  uzf_0  22  UPTO      25.00000000
  wel_0  2  uzf_0  23  UPTO      25.00000000
END period  5

BEGIN period  6
  wel_0  1  uzf_0  44  UPTO      50.00000000
  wel_0  1  uzf_0  45  UPTO      50.00000000
  wel_0  2  uzf_0  22  UPTO      25.00000000
  wel_0  2  uzf_0  23  UPTO      25.00000000
END period  6

BEGIN period  7
  wel_0  1  uzf_0  44  UPTO      50.00000000
  wel_0  1  uzf_0  45  UPTO      50.00000000
  wel_0  2  uzf_0  22  UPTO      25.00000000
  wel_0  2  uzf_0  23  UPTO      25.00000000
END period  7

BEGIN period  8
  wel_0  1  uzf_0  44  UPTO      50.00000000
  wel_0  1  uzf_0  45  UPTO      50.00000000
  wel_0  2  uzf_0  22  UPTO      25.00000000
  wel_0  2  uzf_0  23  UPTO      25.00000000
END period  8

BEGIN period  9
  wel_0  1  uzf_0  44  UPTO      50.00000000
  wel_0  1  uzf_0  45  UPTO      50.00000000
  wel_0  2  uzf_0  22  UPTO      25.00000000
  wel_0  2  uzf_0  23  UPTO      25.00000000
END period  9

BEGIN period  10
  wel_0  1  uzf_0  44  UPTO      50.00000000
  wel_0  1  uzf_0  45  UPTO      50.00000000
  wel_0  2  uzf_0  22  UPTO      25.00000000
  wel_0  2  uzf_0  23  UPTO      25.00000000
END period  10

BEGIN period  11
  wel_0  1  uzf_0  44  UPTO      50.00000000
  wel_0  1  uzf_0  45  UPTO      50.00000000
  wel_0  2  uzf_0  22  UPTO      25.00000000
  wel_0  2  uzf_0  23  UPTO      25.00000000
END period  11

BEGIN period  12
  wel_0  1  uzf_0  44  UPTO      50.00000000
  wel_0  1  uzf_0  45  UPTO      50.00000000
  wel_0  2  uzf_0  22  UPTO      25.00000000
  wel_0  2  uzf_0  23  UPTO      25.00000000
END period  12

