# File generated by Flopy version 3.3.6 on 07/15/2022 at 11:32:02.
BEGIN options
END options

BEGIN timing
  TDIS6  etdemand_sup.tdis
END timing

BEGIN models
  gwf6  etdemand_sup.nam  etdemand_sup
END models

BEGIN exchanges
END exchanges

BEGIN solutiongroup  1
  ims6  etdemand_sup.ims  etdemand_sup
END solutiongroup  1

