# File generated by Flopy version 3.3.6 on 05/20/2022 at 14:22:09.
BEGIN options
END options

BEGIN timing
  TDIS6  etdemand_sup.tdis
END timing

BEGIN models
  gwf6  etdemand_sup.nam  etdemand_sup
END models

BEGIN exchanges
END exchanges

BEGIN solutiongroup  1
  ims6  etdemand_sup.ims  etdemand_sup
END solutiongroup  1

