# File generated by Flopy version 3.3.6 on 07/15/2022 at 13:51:14.
BEGIN options
END options

BEGIN continuous  FILEOUT  etdemand_div.obs.out
  sw_outflow  outflow  9
END continuous  FILEOUT  etdemand_div.obs.out

