# File generated by Flopy version 3.3.6 on 07/15/2022 at 13:53:05.
BEGIN options
END options

BEGIN timing
  TDIS6  etdemand_well.tdis
END timing

BEGIN models
  gwf6  etdemand_well.nam  etdemand_well
END models

BEGIN exchanges
END exchanges

BEGIN solutiongroup  1
  ims6  etdemand_well.ims  etdemand_well
END solutiongroup  1

