# File generated by Flopy version 3.3.6 on 07/15/2022 at 13:48:10.
BEGIN options
  BUDGET  FILEOUT  etdemand_sup_mvr.cbc
  BUDGETCSV  FILEOUT  etdemand_sup_mvr.csv
END options

BEGIN dimensions
  MAXMVR  8
  MAXPACKAGES  3
END dimensions

BEGIN packages
  sfr_0
  uzf_0
  wel_0
END packages

BEGIN period  1
  sfr_0  3  uzf_0  24  UPTO      10.00000000
  wel_0  1  uzf_0  24  UPTO      20.00000000
  sfr_0  3  uzf_0  25  UPTO      10.00000000
  wel_0  1  uzf_0  25  UPTO      20.00000000
  sfr_0  5  uzf_0  44  UPTO       5.00000000
  wel_0  2  uzf_0  44  UPTO      20.00000000
  sfr_0  5  uzf_0  45  UPTO       5.00000000
  wel_0  2  uzf_0  45  UPTO      20.00000000
END period  1

BEGIN period  2
  sfr_0  3  uzf_0  24  UPTO      10.00000000
  wel_0  1  uzf_0  24  UPTO      20.00000000
  sfr_0  3  uzf_0  25  UPTO      10.00000000
  wel_0  1  uzf_0  25  UPTO      20.00000000
  sfr_0  5  uzf_0  44  UPTO       5.00000000
  wel_0  2  uzf_0  44  UPTO      20.00000000
  sfr_0  5  uzf_0  45  UPTO       5.00000000
  wel_0  2  uzf_0  45  UPTO      20.00000000
END period  2

BEGIN period  3
  sfr_0  3  uzf_0  24  UPTO      10.00000000
  wel_0  1  uzf_0  24  UPTO      20.00000000
  sfr_0  3  uzf_0  25  UPTO      10.00000000
  wel_0  1  uzf_0  25  UPTO      20.00000000
  sfr_0  5  uzf_0  44  UPTO       5.00000000
  wel_0  2  uzf_0  44  UPTO      20.00000000
  sfr_0  5  uzf_0  45  UPTO       5.00000000
  wel_0  2  uzf_0  45  UPTO      20.00000000
END period  3

BEGIN period  4
  sfr_0  3  uzf_0  24  UPTO      10.00000000
  wel_0  1  uzf_0  24  UPTO      20.00000000
  sfr_0  3  uzf_0  25  UPTO      10.00000000
  wel_0  1  uzf_0  25  UPTO      20.00000000
  sfr_0  5  uzf_0  44  UPTO       5.00000000
  wel_0  2  uzf_0  44  UPTO      20.00000000
  sfr_0  5  uzf_0  45  UPTO       5.00000000
  wel_0  2  uzf_0  45  UPTO      20.00000000
END period  4

BEGIN period  5
  sfr_0  3  uzf_0  24  UPTO      10.00000000
  wel_0  1  uzf_0  24  UPTO      20.00000000
  sfr_0  3  uzf_0  25  UPTO      10.00000000
  wel_0  1  uzf_0  25  UPTO      20.00000000
  sfr_0  5  uzf_0  44  UPTO       5.00000000
  wel_0  2  uzf_0  44  UPTO      20.00000000
  sfr_0  5  uzf_0  45  UPTO       5.00000000
  wel_0  2  uzf_0  45  UPTO      20.00000000
END period  5

BEGIN period  6
  sfr_0  3  uzf_0  24  UPTO      10.00000000
  wel_0  1  uzf_0  24  UPTO      20.00000000
  sfr_0  3  uzf_0  25  UPTO      10.00000000
  wel_0  1  uzf_0  25  UPTO      20.00000000
  sfr_0  5  uzf_0  44  UPTO       5.00000000
  wel_0  2  uzf_0  44  UPTO      20.00000000
  sfr_0  5  uzf_0  45  UPTO       5.00000000
  wel_0  2  uzf_0  45  UPTO      20.00000000
END period  6

BEGIN period  7
  sfr_0  3  uzf_0  24  UPTO      10.00000000
  wel_0  1  uzf_0  24  UPTO      20.00000000
  sfr_0  3  uzf_0  25  UPTO      10.00000000
  wel_0  1  uzf_0  25  UPTO      20.00000000
  sfr_0  5  uzf_0  44  UPTO       5.00000000
  wel_0  2  uzf_0  44  UPTO      20.00000000
  sfr_0  5  uzf_0  45  UPTO       5.00000000
  wel_0  2  uzf_0  45  UPTO      20.00000000
END period  7

BEGIN period  8
  sfr_0  3  uzf_0  24  UPTO      10.00000000
  wel_0  1  uzf_0  24  UPTO      20.00000000
  sfr_0  3  uzf_0  25  UPTO      10.00000000
  wel_0  1  uzf_0  25  UPTO      20.00000000
  sfr_0  5  uzf_0  44  UPTO       5.00000000
  wel_0  2  uzf_0  44  UPTO      20.00000000
  sfr_0  5  uzf_0  45  UPTO       5.00000000
  wel_0  2  uzf_0  45  UPTO      20.00000000
END period  8

BEGIN period  9
  sfr_0  3  uzf_0  24  UPTO      10.00000000
  wel_0  1  uzf_0  24  UPTO      20.00000000
  sfr_0  3  uzf_0  25  UPTO      10.00000000
  wel_0  1  uzf_0  25  UPTO      20.00000000
  sfr_0  5  uzf_0  44  UPTO       5.00000000
  wel_0  2  uzf_0  44  UPTO      20.00000000
  sfr_0  5  uzf_0  45  UPTO       5.00000000
  wel_0  2  uzf_0  45  UPTO      20.00000000
END period  9

BEGIN period  10
  sfr_0  3  uzf_0  24  UPTO      10.00000000
  wel_0  1  uzf_0  24  UPTO      20.00000000
  sfr_0  3  uzf_0  25  UPTO      10.00000000
  wel_0  1  uzf_0  25  UPTO      20.00000000
  sfr_0  5  uzf_0  44  UPTO       5.00000000
  wel_0  2  uzf_0  44  UPTO      20.00000000
  sfr_0  5  uzf_0  45  UPTO       5.00000000
  wel_0  2  uzf_0  45  UPTO      20.00000000
END period  10

BEGIN period  11
  sfr_0  3  uzf_0  24  UPTO      10.00000000
  wel_0  1  uzf_0  24  UPTO      20.00000000
  sfr_0  3  uzf_0  25  UPTO      10.00000000
  wel_0  1  uzf_0  25  UPTO      20.00000000
  sfr_0  5  uzf_0  44  UPTO       5.00000000
  wel_0  2  uzf_0  44  UPTO      20.00000000
  sfr_0  5  uzf_0  45  UPTO       5.00000000
  wel_0  2  uzf_0  45  UPTO      20.00000000
END period  11

BEGIN period  12
  sfr_0  3  uzf_0  24  UPTO      10.00000000
  wel_0  1  uzf_0  24  UPTO      20.00000000
  sfr_0  3  uzf_0  25  UPTO      10.00000000
  wel_0  1  uzf_0  25  UPTO      20.00000000
  sfr_0  5  uzf_0  44  UPTO       5.00000000
  wel_0  2  uzf_0  44  UPTO      20.00000000
  sfr_0  5  uzf_0  45  UPTO       5.00000000
  wel_0  2  uzf_0  45  UPTO      20.00000000
END period  12

