# OC package for MODFLOW-NWT generated by Flopy 3.3.6
HEAD PRINT FORMAT   0
HEAD SAVE UNIT    51
DRAWDOWN PRINT FORMAT   0
COMPACT BUDGET AUX

period 1 step 1 
  save head
  save budget

period 1 step 2 
  save head
  save budget

period 1 step 3 
  save head
  save budget

period 1 step 4 
  save head
  save budget

period 1 step 5 
  save head
  save budget

period 1 step 6 
  save head
  save budget

period 1 step 7 
  save head
  save budget

period 1 step 8 
  save head
  save budget

period 1 step 9 
  save head
  save budget

period 1 step 10 
  save head
  save budget

period 1 step 11 
  save head
  save budget

period 1 step 12 
  save head
  save budget

period 1 step 13 
  save head
  save budget

period 1 step 14 
  save head
  save budget

period 1 step 15 
  save head
  save budget

period 1 step 16 
  save head
  save budget

period 1 step 17 
  save head
  save budget

period 1 step 18 
  save head
  save budget

period 1 step 19 
  save head
  save budget

period 1 step 20 
  save head
  save budget

period 1 step 21 
  save head
  save budget

period 1 step 22 
  save head
  save budget

period 1 step 23 
  save head
  save budget

period 1 step 24 
  save head
  save budget

period 1 step 25 
  save head
  save budget

period 1 step 26 
  save head
  save budget

period 1 step 27 
  save head
  save budget

period 1 step 28 
  save head
  save budget

period 1 step 29 
  save head
  save budget

period 1 step 30 
  save head
  save budget

period 1 step 31 
  save head
  save budget

period 2 step 1 
  save head
  save budget

period 2 step 2 
  save head
  save budget

period 2 step 3 
  save head
  save budget

period 2 step 4 
  save head
  save budget

period 2 step 5 
  save head
  save budget

period 2 step 6 
  save head
  save budget

period 2 step 7 
  save head
  save budget

period 2 step 8 
  save head
  save budget

period 2 step 9 
  save head
  save budget

period 2 step 10 
  save head
  save budget

period 2 step 11 
  save head
  save budget

period 2 step 12 
  save head
  save budget

period 2 step 13 
  save head
  save budget

period 2 step 14 
  save head
  save budget

period 2 step 15 
  save head
  save budget

period 2 step 16 
  save head
  save budget

period 2 step 17 
  save head
  save budget

period 2 step 18 
  save head
  save budget

period 2 step 19 
  save head
  save budget

period 2 step 20 
  save head
  save budget

period 2 step 21 
  save head
  save budget

period 2 step 22 
  save head
  save budget

period 2 step 23 
  save head
  save budget

period 2 step 24 
  save head
  save budget

period 2 step 25 
  save head
  save budget

period 2 step 26 
  save head
  save budget

period 2 step 27 
  save head
  save budget

period 2 step 28 
  save head
  save budget

period 3 step 1 
  save head
  save budget

period 3 step 2 
  save head
  save budget

period 3 step 3 
  save head
  save budget

period 3 step 4 
  save head
  save budget

period 3 step 5 
  save head
  save budget

period 3 step 6 
  save head
  save budget

period 3 step 7 
  save head
  save budget

period 3 step 8 
  save head
  save budget

period 3 step 9 
  save head
  save budget

period 3 step 10 
  save head
  save budget

period 3 step 11 
  save head
  save budget

period 3 step 12 
  save head
  save budget

period 3 step 13 
  save head
  save budget

period 3 step 14 
  save head
  save budget

period 3 step 15 
  save head
  save budget

period 3 step 16 
  save head
  save budget

period 3 step 17 
  save head
  save budget

period 3 step 18 
  save head
  save budget

period 3 step 19 
  save head
  save budget

period 3 step 20 
  save head
  save budget

period 3 step 21 
  save head
  save budget

period 3 step 22 
  save head
  save budget

period 3 step 23 
  save head
  save budget

period 3 step 24 
  save head
  save budget

period 3 step 25 
  save head
  save budget

period 3 step 26 
  save head
  save budget

period 3 step 27 
  save head
  save budget

period 3 step 28 
  save head
  save budget

period 3 step 29 
  save head
  save budget

period 3 step 30 
  save head
  save budget

period 3 step 31 
  save head
  save budget

period 4 step 1 
  save head
  save budget

period 4 step 2 
  save head
  save budget

period 4 step 3 
  save head
  save budget

period 4 step 4 
  save head
  save budget

period 4 step 5 
  save head
  save budget

period 4 step 6 
  save head
  save budget

period 4 step 7 
  save head
  save budget

period 4 step 8 
  save head
  save budget

period 4 step 9 
  save head
  save budget

period 4 step 10 
  save head
  save budget

period 4 step 11 
  save head
  save budget

period 4 step 12 
  save head
  save budget

period 4 step 13 
  save head
  save budget

period 4 step 14 
  save head
  save budget

period 4 step 15 
  save head
  save budget

period 4 step 16 
  save head
  save budget

period 4 step 17 
  save head
  save budget

period 4 step 18 
  save head
  save budget

period 4 step 19 
  save head
  save budget

period 4 step 20 
  save head
  save budget

period 4 step 21 
  save head
  save budget

period 4 step 22 
  save head
  save budget

period 4 step 23 
  save head
  save budget

period 4 step 24 
  save head
  save budget

period 4 step 25 
  save head
  save budget

period 4 step 26 
  save head
  save budget

period 4 step 27 
  save head
  save budget

period 4 step 28 
  save head
  save budget

period 4 step 29 
  save head
  save budget

period 4 step 30 
  save head
  save budget

period 5 step 1 
  save head
  save budget

period 5 step 2 
  save head
  save budget

period 5 step 3 
  save head
  save budget

period 5 step 4 
  save head
  save budget

period 5 step 5 
  save head
  save budget

period 5 step 6 
  save head
  save budget

period 5 step 7 
  save head
  save budget

period 5 step 8 
  save head
  save budget

period 5 step 9 
  save head
  save budget

period 5 step 10 
  save head
  save budget

period 5 step 11 
  save head
  save budget

period 5 step 12 
  save head
  save budget

period 5 step 13 
  save head
  save budget

period 5 step 14 
  save head
  save budget

period 5 step 15 
  save head
  save budget

period 5 step 16 
  save head
  save budget

period 5 step 17 
  save head
  save budget

period 5 step 18 
  save head
  save budget

period 5 step 19 
  save head
  save budget

period 5 step 20 
  save head
  save budget

period 5 step 21 
  save head
  save budget

period 5 step 22 
  save head
  save budget

period 5 step 23 
  save head
  save budget

period 5 step 24 
  save head
  save budget

period 5 step 25 
  save head
  save budget

period 5 step 26 
  save head
  save budget

period 5 step 27 
  save head
  save budget

period 5 step 28 
  save head
  save budget

period 5 step 29 
  save head
  save budget

period 5 step 30 
  save head
  save budget

period 5 step 31 
  save head
  save budget

period 6 step 1 
  save head
  save budget

period 6 step 2 
  save head
  save budget

period 6 step 3 
  save head
  save budget

period 6 step 4 
  save head
  save budget

period 6 step 5 
  save head
  save budget

period 6 step 6 
  save head
  save budget

period 6 step 7 
  save head
  save budget

period 6 step 8 
  save head
  save budget

period 6 step 9 
  save head
  save budget

period 6 step 10 
  save head
  save budget

period 6 step 11 
  save head
  save budget

period 6 step 12 
  save head
  save budget

period 6 step 13 
  save head
  save budget

period 6 step 14 
  save head
  save budget

period 6 step 15 
  save head
  save budget

period 6 step 16 
  save head
  save budget

period 6 step 17 
  save head
  save budget

period 6 step 18 
  save head
  save budget

period 6 step 19 
  save head
  save budget

period 6 step 20 
  save head
  save budget

period 6 step 21 
  save head
  save budget

period 6 step 22 
  save head
  save budget

period 6 step 23 
  save head
  save budget

period 6 step 24 
  save head
  save budget

period 6 step 25 
  save head
  save budget

period 6 step 26 
  save head
  save budget

period 6 step 27 
  save head
  save budget

period 6 step 28 
  save head
  save budget

period 6 step 29 
  save head
  save budget

period 6 step 30 
  save head
  save budget

period 7 step 1 
  save head
  save budget

period 7 step 2 
  save head
  save budget

period 7 step 3 
  save head
  save budget

period 7 step 4 
  save head
  save budget

period 7 step 5 
  save head
  save budget

period 7 step 6 
  save head
  save budget

period 7 step 7 
  save head
  save budget

period 7 step 8 
  save head
  save budget

period 7 step 9 
  save head
  save budget

period 7 step 10 
  save head
  save budget

period 7 step 11 
  save head
  save budget

period 7 step 12 
  save head
  save budget

period 7 step 13 
  save head
  save budget

period 7 step 14 
  save head
  save budget

period 7 step 15 
  save head
  save budget

period 7 step 16 
  save head
  save budget

period 7 step 17 
  save head
  save budget

period 7 step 18 
  save head
  save budget

period 7 step 19 
  save head
  save budget

period 7 step 20 
  save head
  save budget

period 7 step 21 
  save head
  save budget

period 7 step 22 
  save head
  save budget

period 7 step 23 
  save head
  save budget

period 7 step 24 
  save head
  save budget

period 7 step 25 
  save head
  save budget

period 7 step 26 
  save head
  save budget

period 7 step 27 
  save head
  save budget

period 7 step 28 
  save head
  save budget

period 7 step 29 
  save head
  save budget

period 7 step 30 
  save head
  save budget

period 7 step 31 
  save head
  save budget

period 8 step 1 
  save head
  save budget

period 8 step 2 
  save head
  save budget

period 8 step 3 
  save head
  save budget

period 8 step 4 
  save head
  save budget

period 8 step 5 
  save head
  save budget

period 8 step 6 
  save head
  save budget

period 8 step 7 
  save head
  save budget

period 8 step 8 
  save head
  save budget

period 8 step 9 
  save head
  save budget

period 8 step 10 
  save head
  save budget

period 8 step 11 
  save head
  save budget

period 8 step 12 
  save head
  save budget

period 8 step 13 
  save head
  save budget

period 8 step 14 
  save head
  save budget

period 8 step 15 
  save head
  save budget

period 8 step 16 
  save head
  save budget

period 8 step 17 
  save head
  save budget

period 8 step 18 
  save head
  save budget

period 8 step 19 
  save head
  save budget

period 8 step 20 
  save head
  save budget

period 8 step 21 
  save head
  save budget

period 8 step 22 
  save head
  save budget

period 8 step 23 
  save head
  save budget

period 8 step 24 
  save head
  save budget

period 8 step 25 
  save head
  save budget

period 8 step 26 
  save head
  save budget

period 8 step 27 
  save head
  save budget

period 8 step 28 
  save head
  save budget

period 8 step 29 
  save head
  save budget

period 8 step 30 
  save head
  save budget

period 8 step 31 
  save head
  save budget

period 9 step 1 
  save head
  save budget

period 9 step 2 
  save head
  save budget

period 9 step 3 
  save head
  save budget

period 9 step 4 
  save head
  save budget

period 9 step 5 
  save head
  save budget

period 9 step 6 
  save head
  save budget

period 9 step 7 
  save head
  save budget

period 9 step 8 
  save head
  save budget

period 9 step 9 
  save head
  save budget

period 9 step 10 
  save head
  save budget

period 9 step 11 
  save head
  save budget

period 9 step 12 
  save head
  save budget

period 9 step 13 
  save head
  save budget

period 9 step 14 
  save head
  save budget

period 9 step 15 
  save head
  save budget

period 9 step 16 
  save head
  save budget

period 9 step 17 
  save head
  save budget

period 9 step 18 
  save head
  save budget

period 9 step 19 
  save head
  save budget

period 9 step 20 
  save head
  save budget

period 9 step 21 
  save head
  save budget

period 9 step 22 
  save head
  save budget

period 9 step 23 
  save head
  save budget

period 9 step 24 
  save head
  save budget

period 9 step 25 
  save head
  save budget

period 9 step 26 
  save head
  save budget

period 9 step 27 
  save head
  save budget

period 9 step 28 
  save head
  save budget

period 9 step 29 
  save head
  save budget

period 9 step 30 
  save head
  save budget

period 10 step 1 
  save head
  save budget

period 10 step 2 
  save head
  save budget

period 10 step 3 
  save head
  save budget

period 10 step 4 
  save head
  save budget

period 10 step 5 
  save head
  save budget

period 10 step 6 
  save head
  save budget

period 10 step 7 
  save head
  save budget

period 10 step 8 
  save head
  save budget

period 10 step 9 
  save head
  save budget

period 10 step 10 
  save head
  save budget

period 10 step 11 
  save head
  save budget

period 10 step 12 
  save head
  save budget

period 10 step 13 
  save head
  save budget

period 10 step 14 
  save head
  save budget

period 10 step 15 
  save head
  save budget

period 10 step 16 
  save head
  save budget

period 10 step 17 
  save head
  save budget

period 10 step 18 
  save head
  save budget

period 10 step 19 
  save head
  save budget

period 10 step 20 
  save head
  save budget

period 10 step 21 
  save head
  save budget

period 10 step 22 
  save head
  save budget

period 10 step 23 
  save head
  save budget

period 10 step 24 
  save head
  save budget

period 10 step 25 
  save head
  save budget

period 10 step 26 
  save head
  save budget

period 10 step 27 
  save head
  save budget

period 10 step 28 
  save head
  save budget

period 10 step 29 
  save head
  save budget

period 10 step 30 
  save head
  save budget

period 10 step 31 
  save head
  save budget

period 11 step 1 
  save head
  save budget

period 11 step 2 
  save head
  save budget

period 11 step 3 
  save head
  save budget

period 11 step 4 
  save head
  save budget

period 11 step 5 
  save head
  save budget

period 11 step 6 
  save head
  save budget

period 11 step 7 
  save head
  save budget

period 11 step 8 
  save head
  save budget

period 11 step 9 
  save head
  save budget

period 11 step 10 
  save head
  save budget

period 11 step 11 
  save head
  save budget

period 11 step 12 
  save head
  save budget

period 11 step 13 
  save head
  save budget

period 11 step 14 
  save head
  save budget

period 11 step 15 
  save head
  save budget

period 11 step 16 
  save head
  save budget

period 11 step 17 
  save head
  save budget

period 11 step 18 
  save head
  save budget

period 11 step 19 
  save head
  save budget

period 11 step 20 
  save head
  save budget

period 11 step 21 
  save head
  save budget

period 11 step 22 
  save head
  save budget

period 11 step 23 
  save head
  save budget

period 11 step 24 
  save head
  save budget

period 11 step 25 
  save head
  save budget

period 11 step 26 
  save head
  save budget

period 11 step 27 
  save head
  save budget

period 11 step 28 
  save head
  save budget

period 11 step 29 
  save head
  save budget

period 11 step 30 
  save head
  save budget

period 12 step 1 
  save head
  save budget

period 12 step 2 
  save head
  save budget

period 12 step 3 
  save head
  save budget

period 12 step 4 
  save head
  save budget

period 12 step 5 
  save head
  save budget

period 12 step 6 
  save head
  save budget

period 12 step 7 
  save head
  save budget

period 12 step 8 
  save head
  save budget

period 12 step 9 
  save head
  save budget

period 12 step 10 
  save head
  save budget

period 12 step 11 
  save head
  save budget

period 12 step 12 
  save head
  save budget

period 12 step 13 
  save head
  save budget

period 12 step 14 
  save head
  save budget

period 12 step 15 
  save head
  save budget

period 12 step 16 
  save head
  save budget

period 12 step 17 
  save head
  save budget

period 12 step 18 
  save head
  save budget

period 12 step 19 
  save head
  save budget

period 12 step 20 
  save head
  save budget

period 12 step 21 
  save head
  save budget

period 12 step 22 
  save head
  save budget

period 12 step 23 
  save head
  save budget

period 12 step 24 
  save head
  save budget

period 12 step 25 
  save head
  save budget

period 12 step 26 
  save head
  save budget

period 12 step 27 
  save head
  save budget

period 12 step 28 
  save head
  save budget

period 12 step 29 
  save head
  save budget

period 12 step 30 
  save head
  save budget

period 12 step 31 
  save head
  save budget

