# BAS6 package for MODFLOW-NWT generated by Flopy 3.3.6
FREE
INTERNAL               1    (10I10) -1 #ibound layer 1                
         1         1         1         1         1         1         1         1         1         1
         1         1         1         1         1         1         1         1         1         1
         1         1         1         1         1         1         1         1         1         1
         1         1         1         1         1         1         1         1         1         1
         1         1         1         1         1         1         1         1         1         1
         1         1         1         1         1         1         1         1         1         1
         1         1         1         1         1         1         1         1         1         1
         1         1         1         1         1         1         1         1         1         1
         1         1         1         1         1         1         1         1         1         1
         1         1         1         1         1         1         1         1         1         1
   -999.99
INTERNAL               1  (10E15.6) -1 #strt layer 1                  
   9.500000E+01   9.500000E+01   9.500000E+01   9.500000E+01   9.500000E+01   9.500000E+01   9.500000E+01   9.500000E+01   9.500000E+01   9.500000E+01
   9.500000E+01   9.500000E+01   9.500000E+01   9.500000E+01   9.500000E+01   9.500000E+01   9.500000E+01   9.500000E+01   9.500000E+01   9.500000E+01
   9.500000E+01   9.500000E+01   9.500000E+01   9.500000E+01   9.500000E+01   9.500000E+01   9.500000E+01   9.500000E+01   9.500000E+01   9.500000E+01
   9.500000E+01   9.500000E+01   9.500000E+01   9.500000E+01   9.500000E+01   9.500000E+01   9.500000E+01   9.500000E+01   9.500000E+01   9.500000E+01
   9.500000E+01   9.500000E+01   9.500000E+01   9.500000E+01   9.500000E+01   9.500000E+01   9.500000E+01   9.500000E+01   9.500000E+01   9.500000E+01
   9.500000E+01   9.500000E+01   9.500000E+01   9.500000E+01   9.500000E+01   9.500000E+01   9.500000E+01   9.500000E+01   9.500000E+01   9.500000E+01
   9.500000E+01   9.500000E+01   9.500000E+01   9.500000E+01   9.500000E+01   9.500000E+01   9.500000E+01   9.500000E+01   9.500000E+01   9.500000E+01
   9.500000E+01   9.500000E+01   9.500000E+01   9.500000E+01   9.500000E+01   9.500000E+01   9.500000E+01   9.500000E+01   9.500000E+01   9.500000E+01
   9.500000E+01   9.500000E+01   9.500000E+01   9.500000E+01   9.500000E+01   9.500000E+01   9.500000E+01   9.500000E+01   9.500000E+01   9.500000E+01
   9.500000E+01   9.500000E+01   9.500000E+01   9.500000E+01   9.500000E+01   9.500000E+01   9.500000E+01   9.500000E+01   9.500000E+01   9.500000E+01
