# UZF package for MODFLOW-NWT generated by Flopy 3.3.6
OPTIONS
SPECIFYTHTR
SPECIFYTHTI
END
         1         1         0         1        52         0         7        40         0   3.300000E-01 #NUZTOP IUZFOPT IRUNFLG IETFLG ipakcb IUZFCB2 NTRAIL NSETS NUZGAGES                                
INTERNAL               1    (10I10) -1 #iuzfbnd                       
         1         1         1         1         1         1         1         1         1         1
         1         1         1         1         1         1         1         1         1         1
         1         1         1         1         1         1         1         1         1         1
         1         1         1         1         1         1         1         1         1         1
         1         1         1         1         1         1         1         1         1         1
         1         1         1         1         1         1         1         1         1         1
         1         1         1         1         1         1         1         1         1         1
         1         1         1         1         1         1         1         1         1         1
         1         1         1         1         1         1         1         1         1         1
         1         1         1         1         1         1         1         1         1         1
CONSTANT    8.640000E+00                           #vks                           
CONSTANT    5.000000E+00                           #eps                           
CONSTANT    3.500000E-01                           #thts                          
CONSTANT    5.000000E-02                           #thtr                          
CONSTANT    8.000000E-02                           #thti                          
         1 #finf for stress period 1
INTERNAL               1  (10E15.6) -1 #finf1                         
   2.785000E-03   2.785000E-03   2.785000E-03   2.785000E-03   2.785000E-03   2.785000E-03   2.785000E-03   2.785000E-03   2.785000E-03   2.785000E-03
   2.785000E-03   2.785000E-03   2.785000E-03   2.785000E-03   2.785000E-03   2.785000E-03   2.785000E-03   2.785000E-03   2.785000E-03   2.785000E-03
   2.785000E-03   2.785000E-03   2.785000E-03   2.785000E-03   2.785000E-03   2.785000E-03   2.785000E-03   2.785000E-03   2.785000E-03   2.785000E-03
   2.785000E-03   2.785000E-03   2.785000E-03   2.785000E-03   2.785000E-03   2.785000E-03   2.785000E-03   2.785000E-03   2.785000E-03   2.785000E-03
   2.785000E-03   2.785000E-03   2.785000E-03   2.785000E-03   2.785000E-03   2.785000E-03   2.785000E-03   2.785000E-03   2.785000E-03   2.785000E-03
   2.785000E-03   2.785000E-03   2.785000E-03   2.785000E-03   2.785000E-03   2.785000E-03   2.785000E-03   2.785000E-03   2.785000E-03   2.785000E-03
   2.785000E-03   2.785000E-03   2.785000E-03   2.785000E-03   2.785000E-03   2.785000E-03   2.785000E-03   2.785000E-03   2.785000E-03   2.785000E-03
   2.785000E-03   2.785000E-03   2.785000E-03   2.785000E-03   2.785000E-03   2.785000E-03   2.785000E-03   2.785000E-03   2.785000E-03   2.785000E-03
   2.785000E-03   2.785000E-03   2.785000E-03   2.785000E-03   2.785000E-03   2.785000E-03   2.785000E-03   2.785000E-03   2.785000E-03   2.785000E-03
   2.785000E-03   2.785000E-03   2.785000E-03   2.785000E-03   2.785000E-03   2.785000E-03   2.785000E-03   2.785000E-03   2.785000E-03   2.785000E-03
         1 #pet for stress period 1
INTERNAL               1  (10E15.6) -1 #pet1                          
   1.048500E-03   1.048500E-03   1.048500E-03   1.048500E-03   1.048500E-03   1.048500E-03   1.048500E-03   1.048500E-03   1.048500E-03   1.048500E-03
   1.048500E-03   1.048500E-03   1.048500E-03   1.048500E-03   1.048500E-03   1.048500E-03   1.048500E-03   1.048500E-03   1.048500E-03   1.048500E-03
   1.048500E-03   1.048500E-03   1.048500E-03   1.048500E-03   1.048500E-03   1.048500E-03   1.048500E-03   1.048500E-03   1.048500E-03   1.048500E-03
   1.048500E-03   1.048500E-03   1.048500E-03   1.048500E-03   1.048500E-03   1.048500E-03   1.048500E-03   1.048500E-03   1.048500E-03   1.048500E-03
   1.048500E-03   1.048500E-03   1.048500E-03   1.048500E-03   1.048500E-03   1.048500E-03   1.048500E-03   1.048500E-03   1.048500E-03   1.048500E-03
   1.048500E-03   1.048500E-03   1.048500E-03   1.048500E-03   1.048500E-03   1.048500E-03   1.048500E-03   1.048500E-03   1.048500E-03   1.048500E-03
   1.048500E-03   1.048500E-03   1.048500E-03   1.048500E-03   1.048500E-03   1.048500E-03   1.048500E-03   1.048500E-03   1.048500E-03   1.048500E-03
   1.048500E-03   1.048500E-03   1.048500E-03   1.048500E-03   1.048500E-03   1.048500E-03   1.048500E-03   1.048500E-03   1.048500E-03   1.048500E-03
   1.048500E-03   1.048500E-03   1.048500E-03   1.048500E-03   1.048500E-03   1.048500E-03   1.048500E-03   1.048500E-03   1.048500E-03   1.048500E-03
   1.048500E-03   1.048500E-03   1.048500E-03   1.048500E-03   1.048500E-03   1.048500E-03   1.048500E-03   1.048500E-03   1.048500E-03   1.048500E-03
         1 #extdp for stress period 1
INTERNAL               1  (10E15.6) -1 #extdp1                        
   4.000000E+00   4.000000E+00   4.000000E+00   4.000000E+00   4.000000E+00   4.000000E+00   4.000000E+00   4.000000E+00   4.000000E+00   4.000000E+00
   4.000000E+00   4.000000E+00   4.000000E+00   4.000000E+00   4.000000E+00   4.000000E+00   4.000000E+00   4.000000E+00   4.000000E+00   4.000000E+00
   4.000000E+00   4.000000E+00   4.000000E+00   4.000000E+00   4.000000E+00   4.000000E+00   4.000000E+00   4.000000E+00   4.000000E+00   4.000000E+00
   4.000000E+00   4.000000E+00   4.000000E+00   4.000000E+00   4.000000E+00   4.000000E+00   4.000000E+00   4.000000E+00   4.000000E+00   4.000000E+00
   4.000000E+00   4.000000E+00   4.000000E+00   4.000000E+00   4.000000E+00   4.000000E+00   4.000000E+00   4.000000E+00   4.000000E+00   4.000000E+00
   4.000000E+00   4.000000E+00   4.000000E+00   4.000000E+00   4.000000E+00   4.000000E+00   4.000000E+00   4.000000E+00   4.000000E+00   4.000000E+00
   4.000000E+00   4.000000E+00   4.000000E+00   4.000000E+00   4.000000E+00   4.000000E+00   4.000000E+00   4.000000E+00   4.000000E+00   4.000000E+00
   4.000000E+00   4.000000E+00   4.000000E+00   4.000000E+00   4.000000E+00   4.000000E+00   4.000000E+00   4.000000E+00   4.000000E+00   4.000000E+00
   4.000000E+00   4.000000E+00   4.000000E+00   4.000000E+00   4.000000E+00   4.000000E+00   4.000000E+00   4.000000E+00   4.000000E+00   4.000000E+00
   4.000000E+00   4.000000E+00   4.000000E+00   4.000000E+00   4.000000E+00   4.000000E+00   4.000000E+00   4.000000E+00   4.000000E+00   4.000000E+00
         1 #extwc for stress period 1
INTERNAL               1  (10E15.6) -1 #extwc1                        
   6.000000E-02   6.000000E-02   6.000000E-02   6.000000E-02   6.000000E-02   6.000000E-02   6.000000E-02   6.000000E-02   6.000000E-02   6.000000E-02
   6.000000E-02   6.000000E-02   6.000000E-02   6.000000E-02   6.000000E-02   6.000000E-02   6.000000E-02   6.000000E-02   6.000000E-02   6.000000E-02
   6.000000E-02   6.000000E-02   6.000000E-02   6.000000E-02   6.000000E-02   6.000000E-02   6.000000E-02   6.000000E-02   6.000000E-02   6.000000E-02
   6.000000E-02   6.000000E-02   6.000000E-02   6.000000E-02   6.000000E-02   6.000000E-02   6.000000E-02   6.000000E-02   6.000000E-02   6.000000E-02
   6.000000E-02   6.000000E-02   6.000000E-02   6.000000E-02   6.000000E-02   6.000000E-02   6.000000E-02   6.000000E-02   6.000000E-02   6.000000E-02
   6.000000E-02   6.000000E-02   6.000000E-02   6.000000E-02   6.000000E-02   6.000000E-02   6.000000E-02   6.000000E-02   6.000000E-02   6.000000E-02
   6.000000E-02   6.000000E-02   6.000000E-02   6.000000E-02   6.000000E-02   6.000000E-02   6.000000E-02   6.000000E-02   6.000000E-02   6.000000E-02
   6.000000E-02   6.000000E-02   6.000000E-02   6.000000E-02   6.000000E-02   6.000000E-02   6.000000E-02   6.000000E-02   6.000000E-02   6.000000E-02
   6.000000E-02   6.000000E-02   6.000000E-02   6.000000E-02   6.000000E-02   6.000000E-02   6.000000E-02   6.000000E-02   6.000000E-02   6.000000E-02
   6.000000E-02   6.000000E-02   6.000000E-02   6.000000E-02   6.000000E-02   6.000000E-02   6.000000E-02   6.000000E-02   6.000000E-02   6.000000E-02
         1 #finf for stress period 2
INTERNAL               1  (10E15.6) -1 #finf2                         
   3.248500E-03   3.248500E-03   3.248500E-03   3.248500E-03   3.248500E-03   3.248500E-03   3.248500E-03   3.248500E-03   3.248500E-03   3.248500E-03
   3.248500E-03   3.248500E-03   3.248500E-03   3.248500E-03   3.248500E-03   3.248500E-03   3.248500E-03   3.248500E-03   3.248500E-03   3.248500E-03
   3.248500E-03   3.248500E-03   3.248500E-03   3.248500E-03   3.248500E-03   3.248500E-03   3.248500E-03   3.248500E-03   3.248500E-03   3.248500E-03
   3.248500E-03   3.248500E-03   3.248500E-03   3.248500E-03   3.248500E-03   3.248500E-03   3.248500E-03   3.248500E-03   3.248500E-03   3.248500E-03
   3.248500E-03   3.248500E-03   3.248500E-03   3.248500E-03   3.248500E-03   3.248500E-03   3.248500E-03   3.248500E-03   3.248500E-03   3.248500E-03
   3.248500E-03   3.248500E-03   3.248500E-03   3.248500E-03   3.248500E-03   3.248500E-03   3.248500E-03   3.248500E-03   3.248500E-03   3.248500E-03
   3.248500E-03   3.248500E-03   3.248500E-03   3.248500E-03   3.248500E-03   3.248500E-03   3.248500E-03   3.248500E-03   3.248500E-03   3.248500E-03
   3.248500E-03   3.248500E-03   3.248500E-03   3.248500E-03   3.248500E-03   3.248500E-03   3.248500E-03   3.248500E-03   3.248500E-03   3.248500E-03
   3.248500E-03   3.248500E-03   3.248500E-03   3.248500E-03   3.248500E-03   3.248500E-03   3.248500E-03   3.248500E-03   3.248500E-03   3.248500E-03
   3.248500E-03   3.248500E-03   3.248500E-03   3.248500E-03   3.248500E-03   3.248500E-03   3.248500E-03   3.248500E-03   3.248500E-03   3.248500E-03
         1 #pet for stress period 2
INTERNAL               1  (10E15.6) -1 #pet2                          
   1.860000E-03   1.860000E-03   1.860000E-03   1.860000E-03   1.860000E-03   1.860000E-03   1.860000E-03   1.860000E-03   1.860000E-03   1.860000E-03
   1.860000E-03   1.860000E-03   1.860000E-03   1.860000E-03   1.860000E-03   1.860000E-03   1.860000E-03   1.860000E-03   1.860000E-03   1.860000E-03
   1.860000E-03   1.860000E-03   1.860000E-03   1.860000E-03   1.860000E-03   1.860000E-03   1.860000E-03   1.860000E-03   1.860000E-03   1.860000E-03
   1.860000E-03   1.860000E-03   1.860000E-03   1.860000E-03   1.860000E-03   1.860000E-03   1.860000E-03   1.860000E-03   1.860000E-03   1.860000E-03
   1.860000E-03   1.860000E-03   1.860000E-03   1.860000E-03   1.860000E-03   1.860000E-03   1.860000E-03   1.860000E-03   1.860000E-03   1.860000E-03
   1.860000E-03   1.860000E-03   1.860000E-03   1.860000E-03   1.860000E-03   1.860000E-03   1.860000E-03   1.860000E-03   1.860000E-03   1.860000E-03
   1.860000E-03   1.860000E-03   1.860000E-03   1.860000E-03   1.860000E-03   1.860000E-03   1.860000E-03   1.860000E-03   1.860000E-03   1.860000E-03
   1.860000E-03   1.860000E-03   1.860000E-03   1.860000E-03   1.860000E-03   1.860000E-03   1.860000E-03   1.860000E-03   1.860000E-03   1.860000E-03
   1.860000E-03   1.860000E-03   1.860000E-03   1.860000E-03   1.860000E-03   1.860000E-03   1.860000E-03   1.860000E-03   1.860000E-03   1.860000E-03
   1.860000E-03   1.860000E-03   1.860000E-03   1.860000E-03   1.860000E-03   1.860000E-03   1.860000E-03   1.860000E-03   1.860000E-03   1.860000E-03
         1 #extdp for stress period 2
INTERNAL               1  (10E15.6) -1 #extdp2                        
   4.000000E+00   4.000000E+00   4.000000E+00   4.000000E+00   4.000000E+00   4.000000E+00   4.000000E+00   4.000000E+00   4.000000E+00   4.000000E+00
   4.000000E+00   4.000000E+00   4.000000E+00   4.000000E+00   4.000000E+00   4.000000E+00   4.000000E+00   4.000000E+00   4.000000E+00   4.000000E+00
   4.000000E+00   4.000000E+00   4.000000E+00   4.000000E+00   4.000000E+00   4.000000E+00   4.000000E+00   4.000000E+00   4.000000E+00   4.000000E+00
   4.000000E+00   4.000000E+00   4.000000E+00   4.000000E+00   4.000000E+00   4.000000E+00   4.000000E+00   4.000000E+00   4.000000E+00   4.000000E+00
   4.000000E+00   4.000000E+00   4.000000E+00   4.000000E+00   4.000000E+00   4.000000E+00   4.000000E+00   4.000000E+00   4.000000E+00   4.000000E+00
   4.000000E+00   4.000000E+00   4.000000E+00   4.000000E+00   4.000000E+00   4.000000E+00   4.000000E+00   4.000000E+00   4.000000E+00   4.000000E+00
   4.000000E+00   4.000000E+00   4.000000E+00   4.000000E+00   4.000000E+00   4.000000E+00   4.000000E+00   4.000000E+00   4.000000E+00   4.000000E+00
   4.000000E+00   4.000000E+00   4.000000E+00   4.000000E+00   4.000000E+00   4.000000E+00   4.000000E+00   4.000000E+00   4.000000E+00   4.000000E+00
   4.000000E+00   4.000000E+00   4.000000E+00   4.000000E+00   4.000000E+00   4.000000E+00   4.000000E+00   4.000000E+00   4.000000E+00   4.000000E+00
   4.000000E+00   4.000000E+00   4.000000E+00   4.000000E+00   4.000000E+00   4.000000E+00   4.000000E+00   4.000000E+00   4.000000E+00   4.000000E+00
         1 #extwc for stress period 2
INTERNAL               1  (10E15.6) -1 #extwc2                        
   6.000000E-02   6.000000E-02   6.000000E-02   6.000000E-02   6.000000E-02   6.000000E-02   6.000000E-02   6.000000E-02   6.000000E-02   6.000000E-02
   6.000000E-02   6.000000E-02   6.000000E-02   6.000000E-02   6.000000E-02   6.000000E-02   6.000000E-02   6.000000E-02   6.000000E-02   6.000000E-02
   6.000000E-02   6.000000E-02   6.000000E-02   6.000000E-02   6.000000E-02   6.000000E-02   6.000000E-02   6.000000E-02   6.000000E-02   6.000000E-02
   6.000000E-02   6.000000E-02   6.000000E-02   6.000000E-02   6.000000E-02   6.000000E-02   6.000000E-02   6.000000E-02   6.000000E-02   6.000000E-02
   6.000000E-02   6.000000E-02   6.000000E-02   6.000000E-02   6.000000E-02   6.000000E-02   6.000000E-02   6.000000E-02   6.000000E-02   6.000000E-02
   6.000000E-02   6.000000E-02   6.000000E-02   6.000000E-02   6.000000E-02   6.000000E-02   6.000000E-02   6.000000E-02   6.000000E-02   6.000000E-02
   6.000000E-02   6.000000E-02   6.000000E-02   6.000000E-02   6.000000E-02   6.000000E-02   6.000000E-02   6.000000E-02   6.000000E-02   6.000000E-02
   6.000000E-02   6.000000E-02   6.000000E-02   6.000000E-02   6.000000E-02   6.000000E-02   6.000000E-02   6.000000E-02   6.000000E-02   6.000000E-02
   6.000000E-02   6.000000E-02   6.000000E-02   6.000000E-02   6.000000E-02   6.000000E-02   6.000000E-02   6.000000E-02   6.000000E-02   6.000000E-02
   6.000000E-02   6.000000E-02   6.000000E-02   6.000000E-02   6.000000E-02   6.000000E-02   6.000000E-02   6.000000E-02   6.000000E-02   6.000000E-02
         1 #finf for stress period 3
INTERNAL               1  (10E15.6) -1 #finf3                         
   2.174900E-03   2.174900E-03   2.174900E-03   2.174900E-03   2.174900E-03   2.174900E-03   2.174900E-03   2.174900E-03   2.174900E-03   2.174900E-03
   2.174900E-03   2.174900E-03   2.174900E-03   2.174900E-03   2.174900E-03   2.174900E-03   2.174900E-03   2.174900E-03   2.174900E-03   2.174900E-03
   2.174900E-03   2.174900E-03   2.174900E-03   2.174900E-03   2.174900E-03   2.174900E-03   2.174900E-03   2.174900E-03   2.174900E-03   2.174900E-03
   2.174900E-03   2.174900E-03   2.174900E-03   2.174900E-03   2.174900E-03   2.174900E-03   2.174900E-03   2.174900E-03   2.174900E-03   2.174900E-03
   2.174900E-03   2.174900E-03   2.174900E-03   2.174900E-03   2.174900E-03   2.174900E-03   2.174900E-03   2.174900E-03   2.174900E-03   2.174900E-03
   2.174900E-03   2.174900E-03   2.174900E-03   2.174900E-03   2.174900E-03   2.174900E-03   2.174900E-03   2.174900E-03   2.174900E-03   2.174900E-03
   2.174900E-03   2.174900E-03   2.174900E-03   2.174900E-03   2.174900E-03   2.174900E-03   2.174900E-03   2.174900E-03   2.174900E-03   2.174900E-03
   2.174900E-03   2.174900E-03   2.174900E-03   2.174900E-03   2.174900E-03   2.174900E-03   2.174900E-03   2.174900E-03   2.174900E-03   2.174900E-03
   2.174900E-03   2.174900E-03   2.174900E-03   2.174900E-03   2.174900E-03   2.174900E-03   2.174900E-03   2.174900E-03   2.174900E-03   2.174900E-03
   2.174900E-03   2.174900E-03   2.174900E-03   2.174900E-03   2.174900E-03   2.174900E-03   2.174900E-03   2.174900E-03   2.174900E-03   2.174900E-03
         1 #pet for stress period 3
INTERNAL               1  (10E15.6) -1 #pet3                          
   3.014000E-03   3.014000E-03   3.014000E-03   3.014000E-03   3.014000E-03   3.014000E-03   3.014000E-03   3.014000E-03   3.014000E-03   3.014000E-03
   3.014000E-03   3.014000E-03   3.014000E-03   3.014000E-03   3.014000E-03   3.014000E-03   3.014000E-03   3.014000E-03   3.014000E-03   3.014000E-03
   3.014000E-03   3.014000E-03   3.014000E-03   3.014000E-03   3.014000E-03   3.014000E-03   3.014000E-03   3.014000E-03   3.014000E-03   3.014000E-03
   3.014000E-03   3.014000E-03   3.014000E-03   3.014000E-03   3.014000E-03   3.014000E-03   3.014000E-03   3.014000E-03   3.014000E-03   3.014000E-03
   3.014000E-03   3.014000E-03   3.014000E-03   3.014000E-03   3.014000E-03   3.014000E-03   3.014000E-03   3.014000E-03   3.014000E-03   3.014000E-03
   3.014000E-03   3.014000E-03   3.014000E-03   3.014000E-03   3.014000E-03   3.014000E-03   3.014000E-03   3.014000E-03   3.014000E-03   3.014000E-03
   3.014000E-03   3.014000E-03   3.014000E-03   3.014000E-03   3.014000E-03   3.014000E-03   3.014000E-03   3.014000E-03   3.014000E-03   3.014000E-03
   3.014000E-03   3.014000E-03   3.014000E-03   3.014000E-03   3.014000E-03   3.014000E-03   3.014000E-03   3.014000E-03   3.014000E-03   3.014000E-03
   3.014000E-03   3.014000E-03   3.014000E-03   3.014000E-03   3.014000E-03   3.014000E-03   3.014000E-03   3.014000E-03   3.014000E-03   3.014000E-03
   3.014000E-03   3.014000E-03   3.014000E-03   3.014000E-03   3.014000E-03   3.014000E-03   3.014000E-03   3.014000E-03   3.014000E-03   3.014000E-03
         1 #extdp for stress period 3
INTERNAL               1  (10E15.6) -1 #extdp3                        
   4.000000E+00   4.000000E+00   4.000000E+00   4.000000E+00   4.000000E+00   4.000000E+00   4.000000E+00   4.000000E+00   4.000000E+00   4.000000E+00
   4.000000E+00   4.000000E+00   4.000000E+00   4.000000E+00   4.000000E+00   4.000000E+00   4.000000E+00   4.000000E+00   4.000000E+00   4.000000E+00
   4.000000E+00   4.000000E+00   4.000000E+00   4.000000E+00   4.000000E+00   4.000000E+00   4.000000E+00   4.000000E+00   4.000000E+00   4.000000E+00
   4.000000E+00   4.000000E+00   4.000000E+00   4.000000E+00   4.000000E+00   4.000000E+00   4.000000E+00   4.000000E+00   4.000000E+00   4.000000E+00
   4.000000E+00   4.000000E+00   4.000000E+00   4.000000E+00   4.000000E+00   4.000000E+00   4.000000E+00   4.000000E+00   4.000000E+00   4.000000E+00
   4.000000E+00   4.000000E+00   4.000000E+00   4.000000E+00   4.000000E+00   4.000000E+00   4.000000E+00   4.000000E+00   4.000000E+00   4.000000E+00
   4.000000E+00   4.000000E+00   4.000000E+00   4.000000E+00   4.000000E+00   4.000000E+00   4.000000E+00   4.000000E+00   4.000000E+00   4.000000E+00
   4.000000E+00   4.000000E+00   4.000000E+00   4.000000E+00   4.000000E+00   4.000000E+00   4.000000E+00   4.000000E+00   4.000000E+00   4.000000E+00
   4.000000E+00   4.000000E+00   4.000000E+00   4.000000E+00   4.000000E+00   4.000000E+00   4.000000E+00   4.000000E+00   4.000000E+00   4.000000E+00
   4.000000E+00   4.000000E+00   4.000000E+00   4.000000E+00   4.000000E+00   4.000000E+00   4.000000E+00   4.000000E+00   4.000000E+00   4.000000E+00
         1 #extwc for stress period 3
INTERNAL               1  (10E15.6) -1 #extwc3                        
   6.000000E-02   6.000000E-02   6.000000E-02   6.000000E-02   6.000000E-02   6.000000E-02   6.000000E-02   6.000000E-02   6.000000E-02   6.000000E-02
   6.000000E-02   6.000000E-02   6.000000E-02   6.000000E-02   6.000000E-02   6.000000E-02   6.000000E-02   6.000000E-02   6.000000E-02   6.000000E-02
   6.000000E-02   6.000000E-02   6.000000E-02   6.000000E-02   6.000000E-02   6.000000E-02   6.000000E-02   6.000000E-02   6.000000E-02   6.000000E-02
   6.000000E-02   6.000000E-02   6.000000E-02   6.000000E-02   6.000000E-02   6.000000E-02   6.000000E-02   6.000000E-02   6.000000E-02   6.000000E-02
   6.000000E-02   6.000000E-02   6.000000E-02   6.000000E-02   6.000000E-02   6.000000E-02   6.000000E-02   6.000000E-02   6.000000E-02   6.000000E-02
   6.000000E-02   6.000000E-02   6.000000E-02   6.000000E-02   6.000000E-02   6.000000E-02   6.000000E-02   6.000000E-02   6.000000E-02   6.000000E-02
   6.000000E-02   6.000000E-02   6.000000E-02   6.000000E-02   6.000000E-02   6.000000E-02   6.000000E-02   6.000000E-02   6.000000E-02   6.000000E-02
   6.000000E-02   6.000000E-02   6.000000E-02   6.000000E-02   6.000000E-02   6.000000E-02   6.000000E-02   6.000000E-02   6.000000E-02   6.000000E-02
   6.000000E-02   6.000000E-02   6.000000E-02   6.000000E-02   6.000000E-02   6.000000E-02   6.000000E-02   6.000000E-02   6.000000E-02   6.000000E-02
   6.000000E-02   6.000000E-02   6.000000E-02   6.000000E-02   6.000000E-02   6.000000E-02   6.000000E-02   6.000000E-02   6.000000E-02   6.000000E-02
         1 #finf for stress period 4
INTERNAL               1  (10E15.6) -1 #finf4                         
   8.736800E-04   8.736800E-04   8.736800E-04   8.736800E-04   8.736800E-04   8.736800E-04   8.736800E-04   8.736800E-04   8.736800E-04   8.736800E-04
   8.736800E-04   8.736800E-04   8.736800E-04   8.736800E-04   8.736800E-04   8.736800E-04   8.736800E-04   8.736800E-04   8.736800E-04   8.736800E-04
   8.736800E-04   8.736800E-04   8.736800E-04   8.736800E-04   8.736800E-04   8.736800E-04   8.736800E-04   8.736800E-04   8.736800E-04   8.736800E-04
   8.736800E-04   8.736800E-04   8.736800E-04   8.736800E-04   8.736800E-04   8.736800E-04   8.736800E-04   8.736800E-04   8.736800E-04   8.736800E-04
   8.736800E-04   8.736800E-04   8.736800E-04   8.736800E-04   8.736800E-04   8.736800E-04   8.736800E-04   8.736800E-04   8.736800E-04   8.736800E-04
   8.736800E-04   8.736800E-04   8.736800E-04   8.736800E-04   8.736800E-04   8.736800E-04   8.736800E-04   8.736800E-04   8.736800E-04   8.736800E-04
   8.736800E-04   8.736800E-04   8.736800E-04   8.736800E-04   8.736800E-04   8.736800E-04   8.736800E-04   8.736800E-04   8.736800E-04   8.736800E-04
   8.736800E-04   8.736800E-04   8.736800E-04   8.736800E-04   8.736800E-04   8.736800E-04   8.736800E-04   8.736800E-04   8.736800E-04   8.736800E-04
   8.736800E-04   8.736800E-04   8.736800E-04   8.736800E-04   8.736800E-04   8.736800E-04   8.736800E-04   8.736800E-04   8.736800E-04   8.736800E-04
   8.736800E-04   8.736800E-04   8.736800E-04   8.736800E-04   8.736800E-04   8.736800E-04   8.736800E-04   8.736800E-04   8.736800E-04   8.736800E-04
         1 #pet for stress period 4
INTERNAL               1  (10E15.6) -1 #pet4                          
   4.628100E-03   4.628100E-03   4.628100E-03   4.628100E-03   4.628100E-03   4.628100E-03   4.628100E-03   4.628100E-03   4.628100E-03   4.628100E-03
   4.628100E-03   4.628100E-03   4.628100E-03   4.628100E-03   4.628100E-03   4.628100E-03   4.628100E-03   4.628100E-03   4.628100E-03   4.628100E-03
   4.628100E-03   4.628100E-03   4.628100E-03   4.628100E-03   4.628100E-03   4.628100E-03   4.628100E-03   4.628100E-03   4.628100E-03   4.628100E-03
   4.628100E-03   4.628100E-03   4.628100E-03   4.628100E-03   4.628100E-03   4.628100E-03   4.628100E-03   4.628100E-03   4.628100E-03   4.628100E-03
   4.628100E-03   4.628100E-03   4.628100E-03   4.628100E-03   4.628100E-03   4.628100E-03   4.628100E-03   4.628100E-03   4.628100E-03   4.628100E-03
   4.628100E-03   4.628100E-03   4.628100E-03   4.628100E-03   4.628100E-03   4.628100E-03   4.628100E-03   4.628100E-03   4.628100E-03   4.628100E-03
   4.628100E-03   4.628100E-03   4.628100E-03   4.628100E-03   4.628100E-03   4.628100E-03   4.628100E-03   4.628100E-03   4.628100E-03   4.628100E-03
   4.628100E-03   4.628100E-03   4.628100E-03   4.628100E-03   4.628100E-03   4.628100E-03   4.628100E-03   4.628100E-03   4.628100E-03   4.628100E-03
   4.628100E-03   4.628100E-03   4.628100E-03   4.628100E-03   4.628100E-03   4.628100E-03   4.628100E-03   4.628100E-03   4.628100E-03   4.628100E-03
   4.628100E-03   4.628100E-03   4.628100E-03   4.628100E-03   4.628100E-03   4.628100E-03   4.628100E-03   4.628100E-03   4.628100E-03   4.628100E-03
         1 #extdp for stress period 4
INTERNAL               1  (10E15.6) -1 #extdp4                        
   4.000000E+00   4.000000E+00   4.000000E+00   4.000000E+00   4.000000E+00   4.000000E+00   4.000000E+00   4.000000E+00   4.000000E+00   4.000000E+00
   4.000000E+00   4.000000E+00   4.000000E+00   4.000000E+00   4.000000E+00   4.000000E+00   4.000000E+00   4.000000E+00   4.000000E+00   4.000000E+00
   4.000000E+00   4.000000E+00   4.000000E+00   4.000000E+00   4.000000E+00   4.000000E+00   4.000000E+00   4.000000E+00   4.000000E+00   4.000000E+00
   4.000000E+00   4.000000E+00   4.000000E+00   4.000000E+00   4.000000E+00   4.000000E+00   4.000000E+00   4.000000E+00   4.000000E+00   4.000000E+00
   4.000000E+00   4.000000E+00   4.000000E+00   4.000000E+00   4.000000E+00   4.000000E+00   4.000000E+00   4.000000E+00   4.000000E+00   4.000000E+00
   4.000000E+00   4.000000E+00   4.000000E+00   4.000000E+00   4.000000E+00   4.000000E+00   4.000000E+00   4.000000E+00   4.000000E+00   4.000000E+00
   4.000000E+00   4.000000E+00   4.000000E+00   4.000000E+00   4.000000E+00   4.000000E+00   4.000000E+00   4.000000E+00   4.000000E+00   4.000000E+00
   4.000000E+00   4.000000E+00   4.000000E+00   4.000000E+00   4.000000E+00   4.000000E+00   4.000000E+00   4.000000E+00   4.000000E+00   4.000000E+00
   4.000000E+00   4.000000E+00   4.000000E+00   4.000000E+00   4.000000E+00   4.000000E+00   4.000000E+00   4.000000E+00   4.000000E+00   4.000000E+00
   4.000000E+00   4.000000E+00   4.000000E+00   4.000000E+00   4.000000E+00   4.000000E+00   4.000000E+00   4.000000E+00   4.000000E+00   4.000000E+00
         1 #extwc for stress period 4
INTERNAL               1  (10E15.6) -1 #extwc4                        
   6.000000E-02   6.000000E-02   6.000000E-02   6.000000E-02   6.000000E-02   6.000000E-02   6.000000E-02   6.000000E-02   6.000000E-02   6.000000E-02
   6.000000E-02   6.000000E-02   6.000000E-02   6.000000E-02   6.000000E-02   6.000000E-02   6.000000E-02   6.000000E-02   6.000000E-02   6.000000E-02
   6.000000E-02   6.000000E-02   6.000000E-02   6.000000E-02   6.000000E-02   6.000000E-02   6.000000E-02   6.000000E-02   6.000000E-02   6.000000E-02
   6.000000E-02   6.000000E-02   6.000000E-02   6.000000E-02   6.000000E-02   6.000000E-02   6.000000E-02   6.000000E-02   6.000000E-02   6.000000E-02
   6.000000E-02   6.000000E-02   6.000000E-02   6.000000E-02   6.000000E-02   6.000000E-02   6.000000E-02   6.000000E-02   6.000000E-02   6.000000E-02
   6.000000E-02   6.000000E-02   6.000000E-02   6.000000E-02   6.000000E-02   6.000000E-02   6.000000E-02   6.000000E-02   6.000000E-02   6.000000E-02
   6.000000E-02   6.000000E-02   6.000000E-02   6.000000E-02   6.000000E-02   6.000000E-02   6.000000E-02   6.000000E-02   6.000000E-02   6.000000E-02
   6.000000E-02   6.000000E-02   6.000000E-02   6.000000E-02   6.000000E-02   6.000000E-02   6.000000E-02   6.000000E-02   6.000000E-02   6.000000E-02
   6.000000E-02   6.000000E-02   6.000000E-02   6.000000E-02   6.000000E-02   6.000000E-02   6.000000E-02   6.000000E-02   6.000000E-02   6.000000E-02
   6.000000E-02   6.000000E-02   6.000000E-02   6.000000E-02   6.000000E-02   6.000000E-02   6.000000E-02   6.000000E-02   6.000000E-02   6.000000E-02
         1 #finf for stress period 5
INTERNAL               1  (10E15.6) -1 #finf5                         
   4.759300E-04   4.759300E-04   4.759300E-04   4.759300E-04   4.759300E-04   4.759300E-04   4.759300E-04   4.759300E-04   4.759300E-04   4.759300E-04
   4.759300E-04   4.759300E-04   4.759300E-04   4.759300E-04   4.759300E-04   4.759300E-04   4.759300E-04   4.759300E-04   4.759300E-04   4.759300E-04
   4.759300E-04   4.759300E-04   4.759300E-04   4.759300E-04   4.759300E-04   4.759300E-04   4.759300E-04   4.759300E-04   4.759300E-04   4.759300E-04
   4.759300E-04   4.759300E-04   4.759300E-04   4.759300E-04   4.759300E-04   4.759300E-04   4.759300E-04   4.759300E-04   4.759300E-04   4.759300E-04
   4.759300E-04   4.759300E-04   4.759300E-04   4.759300E-04   4.759300E-04   4.759300E-04   4.759300E-04   4.759300E-04   4.759300E-04   4.759300E-04
   4.759300E-04   4.759300E-04   4.759300E-04   4.759300E-04   4.759300E-04   4.759300E-04   4.759300E-04   4.759300E-04   4.759300E-04   4.759300E-04
   4.759300E-04   4.759300E-04   4.759300E-04   4.759300E-04   4.759300E-04   4.759300E-04   4.759300E-04   4.759300E-04   4.759300E-04   4.759300E-04
   4.759300E-04   4.759300E-04   4.759300E-04   4.759300E-04   4.759300E-04   4.759300E-04   4.759300E-04   4.759300E-04   4.759300E-04   4.759300E-04
   4.759300E-04   4.759300E-04   4.759300E-04   4.759300E-04   4.759300E-04   4.759300E-04   4.759300E-04   4.759300E-04   4.759300E-04   4.759300E-04
   4.759300E-04   4.759300E-04   4.759300E-04   4.759300E-04   4.759300E-04   4.759300E-04   4.759300E-04   4.759300E-04   4.759300E-04   4.759300E-04
         1 #pet for stress period 5
INTERNAL               1  (10E15.6) -1 #pet5                          
   5.975300E-03   5.975300E-03   5.975300E-03   5.975300E-03   5.975300E-03   5.975300E-03   5.975300E-03   5.975300E-03   5.975300E-03   5.975300E-03
   5.975300E-03   5.975300E-03   5.975300E-03   5.975300E-03   5.975300E-03   5.975300E-03   5.975300E-03   5.975300E-03   5.975300E-03   5.975300E-03