# AG package for MODFLOW-NWT generated by Flopy 3.3.6
OPTIONS
IRRIGATION_WELL 2 4
MAXWELLS 2
ETDEMAND 1.0
TIMESERIES_WELL
WELLCBC 52
END
# ag time series
TIME SERIES 
WELL   1   53
WELL   2   54
END 
# segment list for irrigation diversions
SEGMENT LIST
END 
# ag well list
WELL LIST 
1   6   5   -100.000000
1   2   3   -50.000000
END 
# ag stress period data
STRESS PERIOD 1
IRRWELL 
2 
1   2   0   0
5   4   0.000000   0.500000
5   5   0.000000   0.500000
2   2   0   0
3   4   0.000000   0.500000
3   5   0.000000   0.500000
END 
STRESS PERIOD 2
IRRWELL 
2 
1   2   0   0
5   4   0.000000   0.500000
5   5   0.000000   0.500000
2   2   0   0
3   4   0.000000   0.500000
3   5   0.000000   0.500000
END 
STRESS PERIOD 3
IRRWELL 
2 
1   2   0   0
5   4   0.000000   0.500000
5   5   0.000000   0.500000
2   2   0   0
3   4   0.000000   0.500000
3   5   0.000000   0.500000
END 
STRESS PERIOD 4
IRRWELL 
2 
1   2   0   0
5   4   0.000000   0.500000
5   5   0.000000   0.500000
2   2   0   0
3   4   0.000000   0.500000
3   5   0.000000   0.500000
END 
STRESS PERIOD 5
IRRWELL 
2 
1   2   0   0
5   4   0.000000   0.500000
5   5   0.000000   0.500000
2   2   0   0
3   4   0.000000   0.500000
3   5   0.000000   0.500000
END 
STRESS PERIOD 6
IRRWELL 
2 
1   2   0   0
5   4   0.000000   0.500000
5   5   0.000000   0.500000
2   2   0   0
3   4   0.000000   0.500000
3   5   0.000000   0.500000
END 
STRESS PERIOD 7
IRRWELL 
2 
1   2   0   0
5   4   0.000000   0.500000
5   5   0.000000   0.500000
2   2   0   0
3   4   0.000000   0.500000
3   5   0.000000   0.500000
END 
STRESS PERIOD 8
IRRWELL 
2 
1   2   0   0
5   4   0.000000   0.500000
5   5   0.000000   0.500000
2   2   0   0
3   4   0.000000   0.500000
3   5   0.000000   0.500000
END 
STRESS PERIOD 9
IRRWELL 
2 
1   2   0   0
5   4   0.000000   0.500000
5   5   0.000000   0.500000
2   2   0   0
3   4   0.000000   0.500000
3   5   0.000000   0.500000
END 
STRESS PERIOD 10
IRRWELL 
2 
1   2   0   0
5   4   0.000000   0.500000
5   5   0.000000   0.500000
2   2   0   0
3   4   0.000000   0.500000
3   5   0.000000   0.500000
END 
STRESS PERIOD 11
IRRWELL 
2 
1   2   0   0
5   4   0.000000   0.500000
5   5   0.000000   0.500000
2   2   0   0
3   4   0.000000   0.500000
3   5   0.000000   0.500000
END 
STRESS PERIOD 12
IRRWELL 
2 
1   2   0   0
5   4   0.000000   0.500000
5   5   0.000000   0.500000
2   2   0   0
3   4   0.000000   0.500000
3   5   0.000000   0.500000
END 
