# DIS package for MODFLOW-NWT generated by Flopy 3.3.6
         1        10        10        12         4         2
  0
CONSTANT    6.360000E+01                           #delr                          
CONSTANT    6.360000E+01                           #delc                          
CONSTANT    1.000000E+02                           #model_top                     
CONSTANT    0.000000E+00                           #botm layer 1                  
     31.000000            31  1.000000  TR 
     28.000000            28  1.000000  TR 
     31.000000            31  1.000000  TR 
     30.000000            30  1.000000  TR 
     31.000000            31  1.000000  TR 
     30.000000            30  1.000000  TR 
     31.000000            31  1.000000  TR 
     31.000000            31  1.000000  TR 
     30.000000            30  1.000000  TR 
     31.000000            31  1.000000  TR 
     30.000000            30  1.000000  TR 
     31.000000            31  1.000000  TR 
