# AG package for MODFLOW-NWT generated by Flopy 3.3.6
OPTIONS
IRRIGATION_DIVERSION 2 4
ETDEMAND 1.0
TIMESERIES_DIVERSION
END
# ag time series
TIME SERIES 
DIVERSION   11   53
DIVERSION   12   54
END 
# segment list for irrigation diversions
SEGMENT LIST
11
12
END 
# ag stress period data
STRESS PERIOD 1
IRRDIVERSION 
2 
11   2   0   0
5   4   0.000000   0.500000
5   5   0.000000   0.500000
12   2   0   0
3   4   0.000000   0.500000
3   5   0.000000   0.500000
END 
STRESS PERIOD 2
IRRDIVERSION 
2 
11   2   0   0
5   4   0.000000   0.500000
5   5   0.000000   0.500000
12   2   0   0
3   4   0.000000   0.500000
3   5   0.000000   0.500000
END 
STRESS PERIOD 3
IRRDIVERSION 
2 
11   2   0   0
5   4   0.000000   0.500000
5   5   0.000000   0.500000
12   2   0   0
3   4   0.000000   0.500000
3   5   0.000000   0.500000
END 
STRESS PERIOD 4
IRRDIVERSION 
2 
11   2   0   0
5   4   0.000000   0.500000
5   5   0.000000   0.500000
12   2   0   0
3   4   0.000000   0.500000
3   5   0.000000   0.500000
END 
STRESS PERIOD 5
IRRDIVERSION 
2 
11   2   0   0
5   4   0.000000   0.500000
5   5   0.000000   0.500000
12   2   0   0
3   4   0.000000   0.500000
3   5   0.000000   0.500000
END 
STRESS PERIOD 6
IRRDIVERSION 
2 
11   2   0   0
5   4   0.000000   0.500000
5   5   0.000000   0.500000
12   2   0   0
3   4   0.000000   0.500000
3   5   0.000000   0.500000
END 
STRESS PERIOD 7
IRRDIVERSION 
2 
11   2   0   0
5   4   0.000000   0.500000
5   5   0.000000   0.500000
12   2   0   0
3   4   0.000000   0.500000
3   5   0.000000   0.500000
END 
STRESS PERIOD 8
IRRDIVERSION 
2 
11   2   0   0
5   4   0.000000   0.500000
5   5   0.000000   0.500000
12   2   0   0
3   4   0.000000   0.500000
3   5   0.000000   0.500000
END 
STRESS PERIOD 9
IRRDIVERSION 
2 
11   2   0   0
5   4   0.000000   0.500000
5   5   0.000000   0.500000
12   2   0   0
3   4   0.000000   0.500000
3   5   0.000000   0.500000
END 
STRESS PERIOD 10
IRRDIVERSION 
2 
11   2   0   0
5   4   0.000000   0.500000
5   5   0.000000   0.500000
12   2   0   0
3   4   0.000000   0.500000
3   5   0.000000   0.500000
END 
STRESS PERIOD 11
IRRDIVERSION 
2 
11   2   0   0
5   4   0.000000   0.500000
5   5   0.000000   0.500000
12   2   0   0
3   4   0.000000   0.500000
3   5   0.000000   0.500000
END 
STRESS PERIOD 12
IRRDIVERSION 
2 
11   2   0   0
5   4   0.000000   0.500000
5   5   0.000000   0.500000
12   2   0   0
3   4   0.000000   0.500000
3   5   0.000000   0.500000
END 
