# Name file for MODFLOW-NWT, generated by Flopy version 3.3.6.
#xll:0.0; yll:0.0; rotation:0.0; units:meters; lenuni:2; start_datetime:1-1-1970
LIST               2  etdemand_div.list
DIS               11  etdemand_div.dis
BAS6              13  etdemand_div.bas
UPW               31  etdemand_div.upw
SFR               17  etdemand_div.sfr
GAGE             120  etdemand_div.gage
UZF               19  etdemand_div.uzf
OC                14  etdemand_div.oc
NWT               32  etdemand_div.nwt
AG                69  etdemand_div.ag
DATA(BINARY)      52  etdemand_div.cbc REPLACE
DATA              55  gage11.txt
DATA              56  gage12.txt
DATA              57  etdemand_div_gage10.txt
DATA(BINARY)      51  etdemand_div.hds REPLACE
DATA              53  etdemand_div.diversion11.txt
DATA              54  etdemand_div.diversion12.txt