# SFR package for MODFLOW-NWT generated by Flopy 3.3.6
12 12 0 0 86400.00000000 0.00010000 52 0 
1 1 8 1 1 100.0
1 2 8 2 1 100.0
1 3 8 3 1 100.0
1 4 8 4 1 100.0
1 5 8 5 1 100.0
1 6 8 6 1 100.0
1 7 8 7 1 100.0
1 8 8 8 1 100.0
1 9 8 9 1 100.0
1 10 8 10 1 100.0
1 3 7 11 1 100.0
1 5 7 12 1 100.0
12 0 0
1 1 2 0 50.0 0 0 0 0.03 
1.5e-05 0.5 99.0 5.0 
1.5e-05 0.5 98.98 5.0 
2 1 3 0 0 0 0 0 0.03 
1.5e-05 0.5 98.98 5.0 
1.5e-05 0.5 98.96 5.0 
3 1 4 0 0 0 0 0 0.03 
1.5e-05 0.5 98.96 5.0 
1.5e-05 0.5 98.94 5.0 
4 1 5 0 0 0 0 0 0.03 
1.5e-05 0.5 98.94 5.0 
1.5e-05 0.5 98.92 5.0 
5 1 6 0 0 0 0 0 0.03 
1.5e-05 0.5 98.92 5.0 
1.5e-05 0.5 98.9 5.0 
6 1 7 0 0 0 0 0 0.03 
1.5e-05 0.5 98.9 5.0 
1.5e-05 0.5 98.88 5.0 
7 1 8 0 0 0 0 0 0.03 
1.5e-05 0.5 98.88 5.0 
1.5e-05 0.5 98.86 5.0 
8 1 9 0 0 0 0 0 0.03 
1.5e-05 0.5 98.86 5.0 
1.5e-05 0.5 98.84 5.0 
9 1 10 0 0 0 0 0 0.03 
1.5e-05 0.5 98.84 5.0 
1.5e-05 0.5 98.82 5.0 
10 1 0 0 0 0 0 0 0.03 
1.5e-05 0.5 98.82 5.0 
1.5e-05 0.5 98.8 5.0 
11 1 0 3 0 20.0 0 0 0 0.03 
1.5e-05 0.5 98.94 5.0 
1.5e-05 0.5 98.92 5.0 
12 1 0 5 0 10.0 0 0 0 0.03 
1.5e-05 0.5 98.9 5.0 
1.5e-05 0.5 98.88 5.0 
12 0 0
1 1 2 0 50.0 0 0 0 0.03 
1.5e-05 0.5 99.0 5.0 
1.5e-05 0.5 98.98 5.0 
2 1 3 0 0 0 0 0 0.03 
1.5e-05 0.5 98.98 5.0 
1.5e-05 0.5 98.96 5.0 
3 1 4 0 0 0 0 0 0.03 
1.5e-05 0.5 98.96 5.0 
1.5e-05 0.5 98.94 5.0 
4 1 5 0 0 0 0 0 0.03 
1.5e-05 0.5 98.94 5.0 
1.5e-05 0.5 98.92 5.0 
5 1 6 0 0 0 0 0 0.03 
1.5e-05 0.5 98.92 5.0 
1.5e-05 0.5 98.9 5.0 
6 1 7 0 0 0 0 0 0.03 
1.5e-05 0.5 98.9 5.0 
1.5e-05 0.5 98.88 5.0 
7 1 8 0 0 0 0 0 0.03 
1.5e-05 0.5 98.88 5.0 
1.5e-05 0.5 98.86 5.0 
8 1 9 0 0 0 0 0 0.03 
1.5e-05 0.5 98.86 5.0 
1.5e-05 0.5 98.84 5.0 
9 1 10 0 0 0 0 0 0.03 
1.5e-05 0.5 98.84 5.0 
1.5e-05 0.5 98.82 5.0 
10 1 0 0 0 0 0 0 0.03 
1.5e-05 0.5 98.82 5.0 
1.5e-05 0.5 98.8 5.0 
11 1 0 3 0 20.0 0 0 0 0.03 
1.5e-05 0.5 98.94 5.0 
1.5e-05 0.5 98.92 5.0 
12 1 0 5 0 10.0 0 0 0 0.03 
1.5e-05 0.5 98.9 5.0 
1.5e-05 0.5 98.88 5.0 
12 0 0
1 1 2 0 50.0 0 0 0 0.03 
1.5e-05 0.5 99.0 5.0 
1.5e-05 0.5 98.98 5.0 
2 1 3 0 0 0 0 0 0.03 
1.5e-05 0.5 98.98 5.0 
1.5e-05 0.5 98.96 5.0 
3 1 4 0 0 0 0 0 0.03 
1.5e-05 0.5 98.96 5.0 
1.5e-05 0.5 98.94 5.0 
4 1 5 0 0 0 0 0 0.03 
1.5e-05 0.5 98.94 5.0 
1.5e-05 0.5 98.92 5.0 
5 1 6 0 0 0 0 0 0.03 
1.5e-05 0.5 98.92 5.0 
1.5e-05 0.5 98.9 5.0 
6 1 7 0 0 0 0 0 0.03 
1.5e-05 0.5 98.9 5.0 
1.5e-05 0.5 98.88 5.0 
7 1 8 0 0 0 0 0 0.03 
1.5e-05 0.5 98.88 5.0 
1.5e-05 0.5 98.86 5.0 
8 1 9 0 0 0 0 0 0.03 
1.5e-05 0.5 98.86 5.0 
1.5e-05 0.5 98.84 5.0 
9 1 10 0 0 0 0 0 0.03 
1.5e-05 0.5 98.84 5.0 
1.5e-05 0.5 98.82 5.0 
10 1 0 0 0 0 0 0 0.03 
1.5e-05 0.5 98.82 5.0 
1.5e-05 0.5 98.8 5.0 
11 1 0 3 0 20.0 0 0 0 0.03 
1.5e-05 0.5 98.94 5.0 
1.5e-05 0.5 98.92 5.0 
12 1 0 5 0 10.0 0 0 0 0.03 
1.5e-05 0.5 98.9 5.0 
1.5e-05 0.5 98.88 5.0 
12 0 0
1 1 2 0 50.0 0 0 0 0.03 
1.5e-05 0.5 99.0 5.0 
1.5e-05 0.5 98.98 5.0 
2 1 3 0 0 0 0 0 0.03 
1.5e-05 0.5 98.98 5.0 
1.5e-05 0.5 98.96 5.0 
3 1 4 0 0 0 0 0 0.03 
1.5e-05 0.5 98.96 5.0 
1.5e-05 0.5 98.94 5.0 
4 1 5 0 0 0 0 0 0.03 
1.5e-05 0.5 98.94 5.0 
1.5e-05 0.5 98.92 5.0 
5 1 6 0 0 0 0 0 0.03 
1.5e-05 0.5 98.92 5.0 
1.5e-05 0.5 98.9 5.0 
6 1 7 0 0 0 0 0 0.03 
1.5e-05 0.5 98.9 5.0 
1.5e-05 0.5 98.88 5.0 
7 1 8 0 0 0 0 0 0.03 
1.5e-05 0.5 98.88 5.0 
1.5e-05 0.5 98.86 5.0 
8 1 9 0 0 0 0 0 0.03 
1.5e-05 0.5 98.86 5.0 
1.5e-05 0.5 98.84 5.0 
9 1 10 0 0 0 0 0 0.03 
1.5e-05 0.5 98.84 5.0 
1.5e-05 0.5 98.82 5.0 
10 1 0 0 0 0 0 0 0.03 
1.5e-05 0.5 98.82 5.0 
1.5e-05 0.5 98.8 5.0 
11 1 0 3 0 20.0 0 0 0 0.03 
1.5e-05 0.5 98.94 5.0 
1.5e-05 0.5 98.92 5.0 
12 1 0 5 0 10.0 0 0 0 0.03 
1.5e-05 0.5 98.9 5.0 
1.5e-05 0.5 98.88 5.0 
12 0 0
1 1 2 0 50.0 0 0 0 0.03 
1.5e-05 0.5 99.0 5.0 
1.5e-05 0.5 98.98 5.0 
2 1 3 0 0 0 0 0 0.03 
1.5e-05 0.5 98.98 5.0 
1.5e-05 0.5 98.96 5.0 
3 1 4 0 0 0 0 0 0.03 
1.5e-05 0.5 98.96 5.0 
1.5e-05 0.5 98.94 5.0 
4 1 5 0 0 0 0 0 0.03 
1.5e-05 0.5 98.94 5.0 
1.5e-05 0.5 98.92 5.0 
5 1 6 0 0 0 0 0 0.03 
1.5e-05 0.5 98.92 5.0 
1.5e-05 0.5 98.9 5.0 
6 1 7 0 0 0 0 0 0.03 
1.5e-05 0.5 98.9 5.0 
1.5e-05 0.5 98.88 5.0 
7 1 8 0 0 0 0 0 0.03 
1.5e-05 0.5 98.88 5.0 
1.5e-05 0.5 98.86 5.0 
8 1 9 0 0 0 0 0 0.03 
1.5e-05 0.5 98.86 5.0 
1.5e-05 0.5 98.84 5.0 
9 1 10 0 0 0 0 0 0.03 
1.5e-05 0.5 98.84 5.0 
1.5e-05 0.5 98.82 5.0 
10 1 0 0 0 0 0 0 0.03 
1.5e-05 0.5 98.82 5.0 
1.5e-05 0.5 98.8 5.0 
11 1 0 3 0 20.0 0 0 0 0.03 
1.5e-05 0.5 98.94 5.0 
1.5e-05 0.5 98.92 5.0 
12 1 0 5 0 10.0 0 0 0 0.03 
1.5e-05 0.5 98.9 5.0 
1.5e-05 0.5 98.88 5.0 
12 0 0
1 1 2 0 50.0 0 0 0 0.03 
1.5e-05 0.5 99.0 5.0 
1.5e-05 0.5 98.98 5.0 
2 1 3 0 0 0 0 0 0.03 
1.5e-05 0.5 98.98 5.0 
1.5e-05 0.5 98.96 5.0 
3 1 4 0 0 0 0 0 0.03 
1.5e-05 0.5 98.96 5.0 
1.5e-05 0.5 98.94 5.0 
4 1 5 0 0 0 0 0 0.03 
1.5e-05 0.5 98.94 5.0 
1.5e-05 0.5 98.92 5.0 
5 1 6 0 0 0 0 0 0.03 
1.5e-05 0.5 98.92 5.0 
1.5e-05 0.5 98.9 5.0 
6 1 7 0 0 0 0 0 0.03 
1.5e-05 0.5 98.9 5.0 
1.5e-05 0.5 98.88 5.0 
7 1 8 0 0 0 0 0 0.03 
1.5e-05 0.5 98.88 5.0 
1.5e-05 0.5 98.86 5.0 
8 1 9 0 0 0 0 0 0.03 
1.5e-05 0.5 98.86 5.0 
1.5e-05 0.5 98.84 5.0 
9 1 10 0 0 0 0 0 0.03 
1.5e-05 0.5 98.84 5.0 
1.5e-05 0.5 98.82 5.0 
10 1 0 0 0 0 0 0 0.03 
1.5e-05 0.5 98.82 5.0 
1.5e-05 0.5 98.8 5.0 
11 1 0 3 0 20.0 0 0 0 0.03 
1.5e-05 0.5 98.94 5.0 
1.5e-05 0.5 98.92 5.0 
12 1 0 5 0 10.0 0 0 0 0.03 
1.5e-05 0.5 98.9 5.0 
1.5e-05 0.5 98.88 5.0 
12 0 0
1 1 2 0 50.0 0 0 0 0.03 
1.5e-05 0.5 99.0 5.0 
1.5e-05 0.5 98.98 5.0 
2 1 3 0 0 0 0 0 0.03 
1.5e-05 0.5 98.98 5.0 
1.5e-05 0.5 98.96 5.0 
3 1 4 0 0 0 0 0 0.03 
1.5e-05 0.5 98.96 5.0 
1.5e-05 0.5 98.94 5.0 
4 1 5 0 0 0 0 0 0.03 
1.5e-05 0.5 98.94 5.0 
1.5e-05 0.5 98.92 5.0 
5 1 6 0 0 0 0 0 0.03 
1.5e-05 0.5 98.92 5.0 
1.5e-05 0.5 98.9 5.0 
6 1 7 0 0 0 0 0 0.03 
1.5e-05 0.5 98.9 5.0 
1.5e-05 0.5 98.88 5.0 
7 1 8 0 0 0 0 0 0.03 
1.5e-05 0.5 98.88 5.0 
1.5e-05 0.5 98.86 5.0 
8 1 9 0 0 0 0 0 0.03 
1.5e-05 0.5 98.86 5.0 
1.5e-05 0.5 98.84 5.0 
9 1 10 0 0 0 0 0 0.03 
1.5e-05 0.5 98.84 5.0 
1.5e-05 0.5 98.82 5.0 
10 1 0 0 0 0 0 0 0.03 
1.5e-05 0.5 98.82 5.0 
1.5e-05 0.5 98.8 5.0 
11 1 0 3 0 20.0 0 0 0 0.03 
1.5e-05 0.5 98.94 5.0 
1.5e-05 0.5 98.92 5.0 
12 1 0 5 0 10.0 0 0 0 0.03 
1.5e-05 0.5 98.9 5.0 
1.5e-05 0.5 98.88 5.0 
12 0 0
1 1 2 0 50.0 0 0 0 0.03 
1.5e-05 0.5 99.0 5.0 
1.5e-05 0.5 98.98 5.0 
2 1 3 0 0 0 0 0 0.03 
1.5e-05 0.5 98.98 5.0 
1.5e-05 0.5 98.96 5.0 
3 1 4 0 0 0 0 0 0.03 
1.5e-05 0.5 98.96 5.0 
1.5e-05 0.5 98.94 5.0 
4 1 5 0 0 0 0 0 0.03 
1.5e-05 0.5 98.94 5.0 
1.5e-05 0.5 98.92 5.0 
5 1 6 0 0 0 0 0 0.03 
1.5e-05 0.5 98.92 5.0 
1.5e-05 0.5 98.9 5.0 
6 1 7 0 0 0 0 0 0.03 
1.5e-05 0.5 98.9 5.0 
1.5e-05 0.5 98.88 5.0 
7 1 8 0 0 0 0 0 0.03 
1.5e-05 0.5 98.88 5.0 
1.5e-05 0.5 98.86 5.0 
8 1 9 0 0 0 0 0 0.03 
1.5e-05 0.5 98.86 5.0 
1.5e-05 0.5 98.84 5.0 
9 1 10 0 0 0 0 0 0.03 
1.5e-05 0.5 98.84 5.0 
1.5e-05 0.5 98.82 5.0 
10 1 0 0 0 0 0 0 0.03 
1.5e-05 0.5 98.82 5.0 
1.5e-05 0.5 98.8 5.0 
11 1 0 3 0 20.0 0 0 0 0.03 
1.5e-05 0.5 98.94 5.0 
1.5e-05 0.5 98.92 5.0 
12 1 0 5 0 10.0 0 0 0 0.03 
1.5e-05 0.5 98.9 5.0 
1.5e-05 0.5 98.88 5.0 
12 0 0
1 1 2 0 50.0 0 0 0 0.03 
1.5e-05 0.5 99.0 5.0 
1.5e-05 0.5 98.98 5.0 
2 1 3 0 0 0 0 0 0.03 
1.5e-05 0.5 98.98 5.0 
1.5e-05 0.5 98.96 5.0 
3 1 4 0 0 0 0 0 0.03 
1.5e-05 0.5 98.96 5.0 
1.5e-05 0.5 98.94 5.0 
4 1 5 0 0 0 0 0 0.03 
1.5e-05 0.5 98.94 5.0 
1.5e-05 0.5 98.92 5.0 
5 1 6 0 0 0 0 0 0.03 
1.5e-05 0.5 98.92 5.0 
1.5e-05 0.5 98.9 5.0 
6 1 7 0 0 0 0 0 0.03 
1.5e-05 0.5 98.9 5.0 
1.5e-05 0.5 98.88 5.0 
7 1 8 0 0 0 0 0 0.03 
1.5e-05 0.5 98.88 5.0 
1.5e-05 0.5 98.86 5.0 
8 1 9 0 0 0 0 0 0.03 
1.5e-05 0.5 98.86 5.0 
1.5e-05 0.5 98.84 5.0 
9 1 10 0 0 0 0 0 0.03 
1.5e-05 0.5 98.84 5.0 
1.5e-05 0.5 98.82 5.0 
10 1 0 0 0 0 0 0 0.03 
1.5e-05 0.5 98.82 5.0 
1.5e-05 0.5 98.8 5.0 
11 1 0 3 0 20.0 0 0 0 0.03 
1.5e-05 0.5 98.94 5.0 
1.5e-05 0.5 98.92 5.0 
12 1 0 5 0 10.0 0 0 0 0.03 
1.5e-05 0.5 98.9 5.0 
1.5e-05 0.5 98.88 5.0 
12 0 0
1 1 2 0 50.0 0 0 0 0.03 
1.5e-05 0.5 99.0 5.0 
1.5e-05 0.5 98.98 5.0 
2 1 3 0 0 0 0 0 0.03 
1.5e-05 0.5 98.98 5.0 
1.5e-05 0.5 98.96 5.0 
3 1 4 0 0 0 0 0 0.03 
1.5e-05 0.5 98.96 5.0 
1.5e-05 0.5 98.94 5.0 
4 1 5 0 0 0 0 0 0.03 
1.5e-05 0.5 98.94 5.0 
1.5e-05 0.5 98.92 5.0 
5 1 6 0 0 0 0 0 0.03 
1.5e-05 0.5 98.92 5.0 
1.5e-05 0.5 98.9 5.0 
6 1 7 0 0 0 0 0 0.03 
1.5e-05 0.5 98.9 5.0 
1.5e-05 0.5 98.88 5.0 
7 1 8 0 0 0 0 0 0.03 
1.5e-05 0.5 98.88 5.0 
1.5e-05 0.5 98.86 5.0 
8 1 9 0 0 0 0 0 0.03 
1.5e-05 0.5 98.86 5.0 
1.5e-05 0.5 98.84 5.0 
9 1 10 0 0 0 0 0 0.03 
1.5e-05 0.5 98.84 5.0 
1.5e-05 0.5 98.82 5.0 
10 1 0 0 0 0 0 0 0.03 
1.5e-05 0.5 98.82 5.0 
1.5e-05 0.5 98.8 5.0 
11 1 0 3 0 20.0 0 0 0 0.03 
1.5e-05 0.5 98.94 5.0 
1.5e-05 0.5 98.92 5.0 
12 1 0 5 0 10.0 0 0 0 0.03 
1.5e-05 0.5 98.9 5.0 
1.5e-05 0.5 98.88 5.0 
12 0 0
1 1 2 0 50.0 0 0 0 0.03 
1.5e-05 0.5 99.0 5.0 
1.5e-05 0.5 98.98 5.0 
2 1 3 0 0 0 0 0 0.03 
1.5e-05 0.5 98.98 5.0 
1.5e-05 0.5 98.96 5.0 
3 1 4 0 0 0 0 0 0.03 
1.5e-05 0.5 98.96 5.0 
1.5e-05 0.5 98.94 5.0 
4 1 5 0 0 0 0 0 0.03 
1.5e-05 0.5 98.94 5.0 
1.5e-05 0.5 98.92 5.0 
5 1 6 0 0 0 0 0 0.03 
1.5e-05 0.5 98.92 5.0 
1.5e-05 0.5 98.9 5.0 
6 1 7 0 0 0 0 0 0.03 
1.5e-05 0.5 98.9 5.0 
1.5e-05 0.5 98.88 5.0 
7 1 8 0 0 0 0 0 0.03 
1.5e-05 0.5 98.88 5.0 
1.5e-05 0.5 98.86 5.0 
8 1 9 0 0 0 0 0 0.03 
1.5e-05 0.5 98.86 5.0 
1.5e-05 0.5 98.84 5.0 
9 1 10 0 0 0 0 0 0.03 
1.5e-05 0.5 98.84 5.0 
1.5e-05 0.5 98.82 5.0 
10 1 0 0 0 0 0 0 0.03 
1.5e-05 0.5 98.82 5.0 
1.5e-05 0.5 98.8 5.0 
11 1 0 3 0 20.0 0 0 0 0.03 
1.5e-05 0.5 98.94 5.0 
1.5e-05 0.5 98.92 5.0 
12 1 0 5 0 10.0 0 0 0 0.03 
1.5e-05 0.5 98.9 5.0 
1.5e-05 0.5 98.88 5.0 
12 0 0
1 1 2 0 50.0 0 0 0 0.03 
1.5e-05 0.5 99.0 5.0 
1.5e-05 0.5 98.98 5.0 
2 1 3 0 0 0 0 0 0.03 
1.5e-05 0.5 98.98 5.0 
1.5e-05 0.5 98.96 5.0 
3 1 4 0 0 0 0 0 0.03 
1.5e-05 0.5 98.96 5.0 
1.5e-05 0.5 98.94 5.0 
4 1 5 0 0 0 0 0 0.03 
1.5e-05 0.5 98.94 5.0 
1.5e-05 0.5 98.92 5.0 
5 1 6 0 0 0 0 0 0.03 
1.5e-05 0.5 98.92 5.0 
1.5e-05 0.5 98.9 5.0 
6 1 7 0 0 0 0 0 0.03 
1.5e-05 0.5 98.9 5.0 
1.5e-05 0.5 98.88 5.0 
7 1 8 0 0 0 0 0 0.03 
1.5e-05 0.5 98.88 5.0 
1.5e-05 0.5 98.86 5.0 
8 1 9 0 0 0 0 0 0.03 
1.5e-05 0.5 98.86 5.0 
1.5e-05 0.5 98.84 5.0 
9 1 10 0 0 0 0 0 0.03 
1.5e-05 0.5 98.84 5.0 
1.5e-05 0.5 98.82 5.0 
10 1 0 0 0 0 0 0 0.03 
1.5e-05 0.5 98.82 5.0 
1.5e-05 0.5 98.8 5.0 
11 1 0 3 0 20.0 0 0 0 0.03 
1.5e-05 0.5 98.94 5.0 
1.5e-05 0.5 98.92 5.0 
12 1 0 5 0 10.0 0 0 0 0.03 
1.5e-05 0.5 98.9 5.0 
1.5e-05 0.5 98.88 5.0 
