# Name file for MODFLOW-NWT, generated by Flopy version 3.3.6.
#xll:0.0; yll:0.0; rotation:0.0; units:meters; lenuni:2; start_datetime:1-1-1970
LIST               2  etdemand_well.list
DIS               11  etdemand_well.dis
BAS6              13  etdemand_well.bas
UPW               31  etdemand_well.upw
UZF               19  etdemand_well.uzf
OC                14  etdemand_well.oc
NWT               32  etdemand_well.nwt
AG                69  etdemand_well.ag
DATA(BINARY)      52  etdemand_well.cbc REPLACE
DATA(BINARY)      51  etdemand_well.hds REPLACE
DATA              53  etdemand_well.well1.txt
DATA              54  etdemand_well.well2.txt