# Name file for MODFLOW-NWT, generated by Flopy version 3.3.6.
#xll:0.0; yll:0.0; rotation:0.0; units:meters; lenuni:2; start_datetime:1-1-1970
LIST               2  etdemand_sup.list
DIS               11  etdemand_sup.dis
BAS6              13  etdemand_sup.bas
UPW               31  etdemand_sup.upw
SFR               17  etdemand_sup.sfr
GAGE             120  etdemand_sup.gage
UZF               19  etdemand_sup.uzf
OC                14  etdemand_sup.oc
NWT               32  etdemand_sup.nwt
AG                69  etdemand_sup.ag
DATA(BINARY)      52  etdemand_sup.cbc REPLACE
DATA              55  gage11.txt
DATA              56  gage12.txt
DATA              57  etdemand_sup_gage10.txt
DATA(BINARY)      51  etdemand_sup.hds REPLACE
DATA              53  etdemand_sup.diversion11.txt
DATA              54  etdemand_sup.diversion12.txt