# File generated by Flopy version 3.3.6 on 07/15/2022 at 14:12:13.
BEGIN options
END options

BEGIN timing
  TDIS6  etdemand_div.tdis
END timing

BEGIN models
  gwf6  etdemand_div.nam  etdemand_div
END models

BEGIN exchanges
END exchanges

BEGIN solutiongroup  1
  ims6  etdemand_div.ims  etdemand_div
END solutiongroup  1

