# BAS6 package for MODFLOW-NWT generated by Flopy 3.3.6
FREE
INTERNAL               1    (10I10) -1 #ibound layer 1                
         1         1         0         0         0         0         0         0         0         0
         2         1         1         0         0         2         2         2         0         0
         0         2         1         1         2         2         2         2         0         0
         2         2         2         1         1         1         2         2         2         0
         2         2         2         1         1         1         1         1         1         1
         2         2         2         1         1         1         1         1         2         2
         2         2         2         1         1         1         1         1         2         0
         0         2         2         1         1         1         1         2         2         0
         0         2         2         1         1         1         1         2         2         0
         0         2         2         1         1         1         1         2         2         2
         0         2         2         1         1         1         1         2         2         0
         2         2         1         1         1         1         1         2         2         0
         1         1         1         1         1         1         1         1         1         0
         0         2         2         2         2         2         2         2         1         0
         0         0         2         2         2         2         0         0         0         0
   -999.99
INTERNAL               1  (10E15.6) -1 #strt layer 1                  
   1.092870E+03   1.089430E+03   6.999000E+03   6.999000E+03   6.999000E+03   6.999000E+03   6.999000E+03   6.999000E+03   6.999000E+03   6.999000E+03
   1.089870E+03   1.086730E+03   1.081430E+03   6.999000E+03   6.999000E+03   1.072260E+03   1.071490E+03   1.071070E+03   6.999000E+03   6.999000E+03
   6.999000E+03   1.079410E+03   1.077500E+03   1.073560E+03   1.072500E+03   1.070590E+03   1.069100E+03   1.068320E+03   6.999000E+03   6.999000E+03
   1.069120E+03   1.070660E+03   1.070200E+03   1.067050E+03   1.065480E+03   1.063650E+03   1.063880E+03   1.065910E+03   1.066060E+03   6.999000E+03
   1.064950E+03   1.063940E+03   1.062940E+03   1.061500E+03   1.060830E+03   1.060790E+03   1.060230E+03   1.062030E+03   1.065680E+03   1.068130E+03
   1.059820E+03   1.058310E+03   1.057190E+03   1.056430E+03   1.056300E+03   1.056940E+03   1.057230E+03   1.059110E+03   1.061920E+03   1.065580E+03
   1.056080E+03   1.052960E+03   1.051740E+03   1.051200E+03   1.051270E+03   1.051880E+03   1.053220E+03   1.055480E+03   1.056490E+03   6.999000E+03
   6.999000E+03   1.046300E+03   1.045750E+03   1.045550E+03   1.045760E+03   1.046460E+03   1.047820E+03   1.049850E+03   1.050400E+03   6.999000E+03
   6.999000E+03   1.039060E+03   1.039130E+03   1.039490E+03   1.040040E+03   1.041050E+03   1.041640E+03   1.042860E+03   1.044050E+03   6.999000E+03
   6.999000E+03   1.031090E+03   1.031790E+03   1.033260E+03   1.034320E+03   1.035440E+03   1.036510E+03   1.037620E+03   1.039320E+03   1.041590E+03
   6.999000E+03   1.021430E+03   1.023100E+03   1.026840E+03   1.028700E+03   1.030490E+03   1.032090E+03   1.033560E+03   1.035710E+03   6.999000E+03
   1.001170E+03   1.009240E+03   1.014510E+03   1.019620E+03   1.023140E+03   1.026180E+03   1.028570E+03   1.030370E+03   1.034290E+03   6.999000E+03
   9.945300E+02   9.999600E+02   1.006660E+03   1.012880E+03   1.018700E+03   1.024270E+03   1.029090E+03   1.034100E+03   1.036130E+03   6.999000E+03
   6.999000E+03   1.004010E+03   1.008950E+03   1.013700E+03   1.018890E+03   1.024030E+03   1.029480E+03   1.035090E+03   1.039340E+03   6.999000E+03
   6.999000E+03   6.999000E+03   1.011920E+03   1.015100E+03   1.019130E+03   1.022390E+03   6.999000E+03   6.999000E+03   6.999000E+03   6.999000E+03
