# NWT package for MODFLOW-NWT generated by Flopy 3.3.6
 1.000e-02 5.000e+01       500 1.000e-07         2         1         1 SPECIFIED  CONTINUE      0.97     1e-05         0       0.1         0
         1         0         7         7         1         0         1     0.005     0.005        50
