# UZF package for MODFLOW-NWT generated by Flopy 3.3.6
         1         1         1         1       102         0        15       100         0   1.000000E+00 #NUZTOP IUZFOPT IRUNFLG IETFLG ipakcb IUZFCB2 NTRAIL NSETS NUZGAGES                                
INTERNAL               1    (10I10) -1 #iuzfbnd                       
         1         1         0         0         0         0         0         0         0         0
         1         1         1         0         0         1         1         1         0         0
         0         1         1         1         1         1         1         1         0         0
         1         1         1         1         1         1         1         1         1         0
         1         1         1         1         1         1         1         1         1         1
         1         1         1         1         1         1         1         1         1         1
         1         1         1         1         1         1         1         1         1         0
         0         1         1         1         1         1         1         1         1         0
         0         1         1         1         1         1         1         1         1         0
         0         1         1         1         1         1         1         1         1         1
         0         1         1         1         1         1         1         1         1         0
         1         1         1         1         1         1         1         1         1         0
         1         1         1         1         1         1         1         1         1         0
         0         1         1         1         1         1         1         1         1         0
         0         0         1         1         1         1         0         0         0         0
INTERNAL               1    (10I10) -1 #irunbnd                       
         1         1         0         0         0         0         0         0         0         0
         1         1         1         0         0         3         3         3         0         0
         0         1         1         1         3         3         3         3         0         0
         8         8         2         2         2         2         2         3         3         0
         8         8         8         8         2         2         2         3         4         4
         8         8         8         8         8         2         2         4         4         4
         8         8         8         8         8         2         5         5         5         0
         0         8         8         8         8         2         5         5         5         0
         0         8         8         8         8         6         6         6         6         0
         0         8         8         8         8         6         6         6         6         6
         0         8         8         8         8         8         6         6         7         0
         8         8         8         8         8         8         6         7         7         0
         8         8         8         8         8         8         7         7         7         0
         0         8         8         8         8         8         7         7         7         0
         0         0         8         8         8         8         0         0         0         0
CONSTANT    4.600000E-05                           #vks                           
CONSTANT    7.500000E+00                           #eps                           
CONSTANT    3.800000E-01                           #thts                          
         1 #finf for stress period 1
INTERNAL               1  (10E15.6) -1 #finf1                         
   1.000000E-10   2.000000E-10   0.000000E+00   0.000000E+00   0.000000E+00   0.000000E+00   0.000000E+00   0.000000E+00   0.000000E+00   0.000000E+00
   2.000000E-10   1.000000E-10   2.000000E-10   0.000000E+00   0.000000E+00   8.000000E-10   8.000000E-10   5.000000E-10   0.000000E+00   0.000000E+00
   0.000000E+00   5.000000E-10   1.000000E-10   1.000000E-10   8.000000E-10   8.000000E-10   5.000000E-10   5.000000E-10   0.000000E+00   0.000000E+00
   8.000000E-10   5.000000E-10   1.000000E-10   1.000000E-10   1.000000E-10   1.000000E-10   1.000000E-10   1.000000E-10   2.000000E-10   0.000000E+00
   8.000000E-10   5.000000E-10   1.000000E-10   1.000000E-10   1.000000E-10   1.000000E-10   1.000000E-10   1.000000E-10   1.000000E-10   1.000000E-10
   8.000000E-10   5.000000E-10   5.000000E-10   2.000000E-10   2.000000E-10   1.000000E-10   1.000000E-10   1.000000E-10   1.000000E-10   5.000000E-10
   8.000000E-10   5.000000E-10   5.000000E-10   2.000000E-10   2.000000E-10   1.000000E-10   1.000000E-10   2.000000E-10   2.000000E-10   0.000000E+00
   0.000000E+00   5.000000E-10   5.000000E-10   2.000000E-10   2.000000E-10   1.000000E-10   1.000000E-10   2.000000E-10   5.000000E-10   0.000000E+00
   0.000000E+00   5.000000E-10   5.000000E-10   2.000000E-10   2.000000E-10   1.000000E-10   1.000000E-10   2.000000E-10   5.000000E-10   0.000000E+00
   0.000000E+00   5.000000E-10   5.000000E-10   2.000000E-10   2.000000E-10   1.000000E-10   1.000000E-10   2.000000E-10   5.000000E-10   8.000000E-10
   0.000000E+00   1.000000E-10   1.000000E-10   1.000000E-10   1.000000E-10   1.000000E-10   1.000000E-10   2.000000E-10   5.000000E-10   0.000000E+00
   1.000000E-10   1.000000E-10   1.000000E-10   1.000000E-10   1.000000E-10   1.000000E-10   1.000000E-10   1.000000E-10   2.000000E-10   0.000000E+00
   1.000000E-10   1.000000E-10   2.000000E-10   2.000000E-10   2.000000E-10   2.000000E-10   2.000000E-10   1.000000E-10   1.000000E-10   0.000000E+00
   0.000000E+00   2.000000E-10   5.000000E-10   5.000000E-10   5.000000E-10   5.000000E-10   5.000000E-10   2.000000E-10   1.000000E-10   0.000000E+00
   0.000000E+00   0.000000E+00   8.000000E-10   8.000000E-10   8.000000E-10   8.000000E-10   0.000000E+00   0.000000E+00   0.000000E+00   0.000000E+00
         1 #pet for stress period 1
CONSTANT    1.000000E-08                           #pet1                          
         1 #extdp for stress period 1
CONSTANT    5.000000E-01                           #extdp1                        
         1 #extwc for stress period 1
CONSTANT    2.000000E-01                           #extwc1                        
         1 #finf for stress period 2
INTERNAL               1  (10E15.6) -1 #finf2                         
   1.000000E-10   2.000000E-10   0.000000E+00   0.000000E+00   0.000000E+00   0.000000E+00   0.000000E+00   0.000000E+00   0.000000E+00   0.000000E+00
   2.000000E-10   1.000000E-10   2.000000E-10   0.000000E+00   0.000000E+00   8.000000E-10   8.000000E-10   5.000000E-10   0.000000E+00   0.000000E+00
   0.000000E+00   5.000000E-10   1.000000E-10   1.000000E-10   8.000000E-10   8.000000E-10   5.000000E-10   5.000000E-10   0.000000E+00   0.000000E+00
   8.000000E-10   5.000000E-10   1.000000E-10   1.000000E-10   1.000000E-10   1.000000E-10   1.000000E-10   1.000000E-10   2.000000E-10   0.000000E+00
   8.000000E-10   5.000000E-10   1.000000E-10   1.000000E-10   1.000000E-10   1.000000E-10   1.000000E-10   1.000000E-10   1.000000E-10   1.000000E-10
   8.000000E-10   5.000000E-10   5.000000E-10   2.000000E-10   2.000000E-10   1.000000E-10   1.000000E-10   1.000000E-10   1.000000E-10   5.000000E-10
   8.000000E-10   5.000000E-10   5.000000E-10   2.000000E-10   2.000000E-10   1.000000E-10   1.000000E-10   2.000000E-10   2.000000E-10   0.000000E+00
   0.000000E+00   5.000000E-10   5.000000E-10   2.000000E-10   2.000000E-10   1.000000E-10   1.000000E-10   2.000000E-10   5.000000E-10   0.000000E+00
   0.000000E+00   5.000000E-10   5.000000E-10   2.000000E-10   2.000000E-10   1.000000E-10   1.000000E-10   2.000000E-10   5.000000E-10   0.000000E+00
   0.000000E+00   5.000000E-10   5.000000E-10   2.000000E-10   2.000000E-10   1.000000E-10   1.000000E-10   2.000000E-10   5.000000E-10   8.000000E-10
   0.000000E+00   1.000000E-10   1.000000E-10   1.000000E-10   1.000000E-10   1.000000E-10   1.000000E-10   2.000000E-10   5.000000E-10   0.000000E+00
   1.000000E-10   1.000000E-10   1.000000E-10   1.000000E-10   1.000000E-10   1.000000E-10   1.000000E-10   1.000000E-10   2.000000E-10   0.000000E+00
   1.000000E-10   1.000000E-10   2.000000E-10   2.000000E-10   2.000000E-10   2.000000E-10   2.000000E-10   1.000000E-10   1.000000E-10   0.000000E+00
   0.000000E+00   2.000000E-10   5.000000E-10   5.000000E-10   5.000000E-10   5.000000E-10   5.000000E-10   2.000000E-10   1.000000E-10   0.000000E+00
   0.000000E+00   0.000000E+00   8.000000E-10   8.000000E-10   8.000000E-10   8.000000E-10   0.000000E+00   0.000000E+00   0.000000E+00   0.000000E+00
         1 #pet for stress period 2
CONSTANT    5.000000E-10                           #pet2                          
        -1 #extdp for stress period 2
        -1 #extwc for stress period 2
         1 #finf for stress period 3
INTERNAL               1  (10E15.6) -1 #finf3                         
   1.000000E-10   2.000000E-10   0.000000E+00   0.000000E+00   0.000000E+00   0.000000E+00   0.000000E+00   0.000000E+00   0.000000E+00   0.000000E+00
   2.000000E-10   1.000000E-10   2.000000E-10   0.000000E+00   0.000000E+00   8.000000E-10   8.000000E-10   5.000000E-10   0.000000E+00   0.000000E+00
   0.000000E+00   5.000000E-10   1.000000E-10   1.000000E-10   8.000000E-10   8.000000E-10   5.000000E-10   5.000000E-10   0.000000E+00   0.000000E+00
   8.000000E-10   5.000000E-10   1.000000E-10   1.000000E-10   1.000000E-10   1.000000E-10   1.000000E-10   1.000000E-10   2.000000E-10   0.000000E+00
   8.000000E-10   5.000000E-10   1.000000E-10   1.000000E-10   1.000000E-10   1.000000E-10   1.000000E-10   1.000000E-10   1.000000E-10   1.000000E-10
   8.000000E-10   5.000000E-10   5.000000E-10   2.000000E-10   2.000000E-10   1.000000E-10   1.000000E-10   1.000000E-10   1.000000E-10   5.000000E-10
   8.000000E-10   5.000000E-10   5.000000E-10   2.000000E-10   2.000000E-10   1.000000E-10   1.000000E-10   2.000000E-10   2.000000E-10   0.000000E+00
   0.000000E+00   5.000000E-10   5.000000E-10   2.000000E-10   2.000000E-10   1.000000E-10   1.000000E-10   2.000000E-10   5.000000E-10   0.000000E+00
   0.000000E+00   5.000000E-10   5.000000E-10   2.000000E-10   2.000000E-10   1.000000E-10   1.000000E-10   2.000000E-10   5.000000E-10   0.000000E+00
   0.000000E+00   5.000000E-10   5.000000E-10   2.000000E-10   2.000000E-10   1.000000E-10   1.000000E-10   2.000000E-10   5.000000E-10   8.000000E-10
   0.000000E+00   1.000000E-10   1.000000E-10   1.000000E-10   1.000000E-10   1.000000E-10   1.000000E-10   2.000000E-10   5.000000E-10   0.000000E+00
   1.000000E-10   1.000000E-10   1.000000E-10   1.000000E-10   1.000000E-10   1.000000E-10   1.000000E-10   1.000000E-10   2.000000E-10   0.000000E+00
   1.000000E-10   1.000000E-10   2.000000E-10   2.000000E-10   2.000000E-10   2.000000E-10   2.000000E-10   1.000000E-10   1.000000E-10   0.000000E+00
   0.000000E+00   2.000000E-10   5.000000E-10   5.000000E-10   5.000000E-10   5.000000E-10   5.000000E-10   2.000000E-10   1.000000E-10   0.000000E+00
   0.000000E+00   0.000000E+00   8.000000E-10   8.000000E-10   8.000000E-10   8.000000E-10   0.000000E+00   0.000000E+00   0.000000E+00   0.000000E+00
         1 #pet for stress period 3
CONSTANT    5.000000E-10                           #pet3                          
        -1 #extdp for stress period 3
        -1 #extwc for stress period 3
         1 #finf for stress period 4
INTERNAL               1  (10E15.6) -1 #finf4                         
   1.000000E-10   2.000000E-10   0.000000E+00   0.000000E+00   0.000000E+00   0.000000E+00   0.000000E+00   0.000000E+00   0.000000E+00   0.000000E+00
   2.000000E-10   1.000000E-10   2.000000E-10   0.000000E+00   0.000000E+00   8.000000E-10   8.000000E-10   5.000000E-10   0.000000E+00   0.000000E+00
   0.000000E+00   5.000000E-10   1.000000E-10   1.000000E-10   8.000000E-10   8.000000E-10   5.000000E-10   5.000000E-10   0.000000E+00   0.000000E+00
   8.000000E-10   5.000000E-10   1.000000E-10   1.000000E-10   1.000000E-10   1.000000E-10   1.000000E-10   1.000000E-10   2.000000E-10   0.000000E+00
   8.000000E-10   5.000000E-10   1.000000E-10   1.000000E-10   1.000000E-10   1.000000E-10   1.000000E-10   1.000000E-10   1.000000E-10   1.000000E-10
   8.000000E-10   5.000000E-10   5.000000E-10   2.000000E-10   2.000000E-10   1.000000E-10   1.000000E-10   1.000000E-10   1.000000E-10   5.000000E-10
   8.000000E-10   5.000000E-10   5.000000E-10   2.000000E-10   2.000000E-10   1.000000E-10   1.000000E-10   2.000000E-10   2.000000E-10   0.000000E+00
   0.000000E+00   5.000000E-10   5.000000E-10   2.000000E-10   2.000000E-10   1.000000E-10   1.000000E-10   2.000000E-10   5.000000E-10   0.000000E+00
   0.000000E+00   5.000000E-10   5.000000E-10   2.000000E-10   2.000000E-10   1.000000E-10   1.000000E-10   2.000000E-10   5.000000E-10   0.000000E+00
   0.000000E+00   5.000000E-10   5.000000E-10   2.000000E-10   2.000000E-10   1.000000E-10   1.000000E-10   2.000000E-10   5.000000E-10   8.000000E-10
   0.000000E+00   1.000000E-10   1.000000E-10   1.000000E-10   1.000000E-10   1.000000E-10   1.000000E-10   2.000000E-10   5.000000E-10   0.000000E+00
   1.000000E-10   1.000000E-10   1.000000E-10   1.000000E-10   1.000000E-10   1.000000E-10   1.000000E-10   1.000000E-10   2.000000E-10   0.000000E+00
   1.000000E-10   1.000000E-10   2.000000E-10   2.000000E-10   2.000000E-10   2.000000E-10   2.000000E-10   1.000000E-10   1.000000E-10   0.000000E+00
   0.000000E+00   2.000000E-10   5.000000E-10   5.000000E-10   5.000000E-10   5.000000E-10   5.000000E-10   2.000000E-10   1.000000E-10   0.000000E+00
   0.000000E+00   0.000000E+00   8.000000E-10   8.000000E-10   8.000000E-10   8.000000E-10   0.000000E+00   0.000000E+00   0.000000E+00   0.000000E+00
         1 #pet for stress period 4
CONSTANT    5.000000E-10                           #pet4                          
        -1 #extdp for stress period 4
        -1 #extwc for stress period 4
         1 #finf for stress period 5
INTERNAL               1  (10E15.6) -1 #finf5                         
   1.000000E-10   2.000000E-10   0.000000E+00   0.000000E+00   0.000000E+00   0.000000E+00   0.000000E+00   0.000000E+00   0.000000E+00   0.000000E+00
   2.000000E-10   1.000000E-10   2.000000E-10   0.000000E+00   0.000000E+00   8.000000E-10   8.000000E-10   5.000000E-10   0.000000E+00   0.000000E+00
   0.000000E+00   5.000000E-10   1.000000E-10   1.000000E-10   8.000000E-10   8.000000E-10   5.000000E-10   5.000000E-10   0.000000E+00   0.000000E+00
   8.000000E-10   5.000000E-10   1.000000E-10   1.000000E-10   1.000000E-10   1.000000E-10   1.000000E-10   1.000000E-10   2.000000E-10   0.000000E+00
   8.000000E-10   5.000000E-10   1.000000E-10   1.000000E-10   1.000000E-10   1.000000E-10   1.000000E-10   1.000000E-10   1.000000E-10   1.000000E-10
   8.000000E-10   5.000000E-10   5.000000E-10   2.000000E-10   2.000000E-10   1.000000E-10   1.000000E-10   1.000000E-10   1.000000E-10   5.000000E-10
   8.000000E-10   5.000000E-10   5.000000E-10   2.000000E-10   2.000000E-10   1.000000E-10   1.000000E-10   2.000000E-10   2.000000E-10   0.000000E+00
   0.000000E+00   5.000000E-10   5.000000E-10   2.000000E-10   2.000000E-10   1.000000E-10   1.000000E-10   2.000000E-10   5.000000E-10   0.000000E+00
   0.000000E+00   5.000000E-10   5.000000E-10   2.000000E-10   2.000000E-10   1.000000E-10   1.000000E-10   2.000000E-10   5.000000E-10   0.000000E+00
   0.000000E+00   5.000000E-10   5.000000E-10   2.000000E-10   2.000000E-10   1.000000E-10   1.000000E-10   2.000000E-10   5.000000E-10   8.000000E-10
   0.000000E+00   1.000000E-10   1.000000E-10   1.000000E-10   1.000000E-10   1.000000E-10   1.000000E-10   2.000000E-10   5.000000E-10   0.000000E+00
   1.000000E-10   1.000000E-10   1.000000E-10   1.000000E-10   1.000000E-10   1.000000E-10   1.000000E-10   1.000000E-10   2.000000E-10   0.000000E+00
   1.000000E-10   1.000000E-10   2.000000E-10   2.000000E-10   2.000000E-10   2.000000E-10   2.000000E-10   1.000000E-10   1.000000E-10   0.000000E+00
   0.000000E+00   2.000000E-10   5.000000E-10   5.000000E-10   5.000000E-10   5.000000E-10   5.000000E-10   2.000000E-10   1.000000E-10   0.000000E+00
   0.000000E+00   0.000000E+00   8.000000E-10   8.000000E-10   8.000000E-10   8.000000E-10   0.000000E+00   0.000000E+00   0.000000E+00   0.000000E+00
         1 #pet for stress period 5
CONSTANT    2.500000E-08                           #pet5                          
        -1 #extdp for stress period 5
        -1 #extwc for stress period 5
         1 #finf for stress period 6
INTERNAL               1  (10E15.6) -1 #finf6                         
   1.000000E-10   2.000000E-10   0.000000E+00   0.000000E+00   0.000000E+00   0.000000E+00   0.000000E+00   0.000000E+00   0.000000E+00   0.000000E+00
   2.000000E-10   1.000000E-10   2.000000E-10   0.000000E+00   0.000000E+00   8.000000E-10   8.000000E-10   5.000000E-10   0.000000E+00   0.000000E+00
   0.000000E+00   5.000000E-10   1.000000E-10   1.000000E-10   8.000000E-10   8.000000E-10   5.000000E-10   5.000000E-10   0.000000E+00   0.000000E+00
   8.000000E-10   5.000000E-10   1.000000E-10   1.000000E-10   1.000000E-10   1.000000E-10   1.000000E-10   1.000000E-10   2.000000E-10   0.000000E+00
   8.000000E-10   5.000000E-10   1.000000E-10   1.000000E-10   1.000000E-10   1.000000E-10   1.000000E-10   1.000000E-10   1.000000E-10   1.000000E-10
   8.000000E-10   5.000000E-10   5.000000E-10   2.000000E-10   2.000000E-10   1.000000E-10   1.000000E-10   1.000000E-10   1.000000E-10   5.000000E-10
   8.000000E-10   5.000000E-10   5.000000E-10   2.000000E-10   2.000000E-10   1.000000E-10   1.000000E-10   2.000000E-10   2.000000E-10   0.000000E+00
   0.000000E+00   5.000000E-10   5.000000E-10   2.000000E-10   2.000000E-10   1.000000E-10   1.000000E-10   2.000000E-10   5.000000E-10   0.000000E+00
   0.000000E+00   5.000000E-10   5.000000E-10   2.000000E-10   2.000000E-10   1.000000E-10   1.000000E-10   2.000000E-10   5.000000E-10   0.000000E+00
   0.000000E+00   5.000000E-10   5.000000E-10   2.000000E-10   2.000000E-10   1.000000E-10   1.000000E-10   2.000000E-10   5.000000E-10   8.000000E-10
   0.000000E+00   1.000000E-10   1.000000E-10   1.000000E-10   1.000000E-10   1.000000E-10   1.000000E-10   2.000000E-10   5.000000E-10   0.000000E+00
   1.000000E-10   1.000000E-10   1.000000E-10   1.000000E-10   1.000000E-10   1.000000E-10   1.000000E-10   1.000000E-10   2.000000E-10   0.000000E+00
   1.000000E-10   1.000000E-10   2.000000E-10   2.000000E-10   2.000000E-10   2.000000E-10   2.000000E-10   1.000000E-10   1.000000E-10   0.000000E+00
   0.000000E+00   2.000000E-10   5.000000E-10   5.000000E-10   5.000000E-10   5.000000E-10   5.000000E-10   2.000000E-10   1.000000E-10   0.000000E+00
   0.000000E+00   0.000000E+00   8.000000E-10   8.000000E-10   8.000000E-10   8.000000E-10   0.000000E+00   0.000000E+00   0.000000E+00   0.000000E+00
         1 #pet for stress period 6
CONSTANT    5.000000E-08                           #pet6                          
        -1 #extdp for stress period 6
        -1 #extwc for stress period 6
         1 #finf for stress period 7
INTERNAL               1  (10E15.6) -1 #finf7                         
   1.000000E-10   2.000000E-10   0.000000E+00   0.000000E+00   0.000000E+00   0.000000E+00   0.000000E+00   0.000000E+00   0.000000E+00   0.000000E+00
   2.000000E-10   1.000000E-10   2.000000E-10   0.000000E+00   0.000000E+00   8.000000E-10   8.000000E-10   5.000000E-10   0.000000E+00   0.000000E+00
   0.000000E+00   5.000000E-10   1.000000E-10   1.000000E-10   8.000000E-10   8.000000E-10   5.000000E-10   5.000000E-10   0.000000E+00   0.000000E+00
   8.000000E-10   5.000000E-10   1.000000E-10   1.000000E-10   1.000000E-10   1.000000E-10   1.000000E-10   1.000000E-10   2.000000E-10   0.000000E+00
   8.000000E-10   5.000000E-10   1.000000E-10   1.000000E-10   1.000000E-10   1.000000E-10   1.000000E-10   1.000000E-10   1.000000E-10   1.000000E-10
   8.000000E-10   5.000000E-10   5.000000E-10   2.000000E-10   2.000000E-10   1.000000E-10   1.000000E-10   1.000000E-10   1.000000E-10   5.000000E-10
   8.000000E-10   5.000000E-10   5.000000E-10   2.000000E-10   2.000000E-10   1.000000E-10   1.000000E-10   2.000000E-10   2.000000E-10   0.000000E+00
   0.000000E+00   5.000000E-10   5.000000E-10   2.000000E-10   2.000000E-10   1.000000E-10   1.000000E-10   2.000000E-10   5.000000E-10   0.000000E+00
   0.000000E+00   5.000000E-10   5.000000E-10   2.000000E-10   2.000000E-10   1.000000E-10   1.000000E-10   2.000000E-10   5.000000E-10   0.000000E+00
   0.000000E+00   5.000000E-10   5.000000E-10   2.000000E-10   2.000000E-10   1.000000E-10   1.000000E-10   2.000000E-10   5.000000E-10   8.000000E-10
   0.000000E+00   1.000000E-10   1.000000E-10   1.000000E-10   1.000000E-10   1.000000E-10   1.000000E-10   2.000000E-10   5.000000E-10   0.000000E+00
   1.000000E-10   1.000000E-10   1.000000E-10   1.000000E-10   1.000000E-10   1.000000E-10   1.000000E-10   1.000000E-10   2.000000E-10   0.000000E+00
   1.000000E-10   1.000000E-10   2.000000E-10   2.000000E-10   2.000000E-10   2.000000E-10   2.000000E-10   1.000000E-10   1.000000E-10   0.000000E+00
   0.000000E+00   2.000000E-10   5.000000E-10   5.000000E-10   5.000000E-10   5.000000E-10   5.000000E-10   2.000000E-10   1.000000E-10   0.000000E+00
   0.000000E+00   0.000000E+00   8.000000E-10   8.000000E-10   8.000000E-10   8.000000E-10   0.000000E+00   0.000000E+00   0.000000E+00   0.000000E+00
         1 #pet for stress period 7
CONSTANT    1.500000E-07                           #pet7                          
        -1 #extdp for stress period 7
        -1 #extwc for stress period 7
         1 #finf for stress period 8
INTERNAL               1  (10E15.6) -1 #finf8                         
   1.000000E-10   2.000000E-10   0.000000E+00   0.000000E+00   0.000000E+00   0.000000E+00   0.000000E+00   0.000000E+00   0.000000E+00   0.000000E+00
   2.000000E-10   1.000000E-10   2.000000E-10   0.000000E+00   0.000000E+00   8.000000E-10   8.000000E-10   5.000000E-10   0.000000E+00   0.000000E+00
   0.000000E+00   5.000000E-10   1.000000E-10   1.000000E-10   8.000000E-10   8.000000E-10   5.000000E-10   5.000000E-10   0.000000E+00   0.000000E+00
   8.000000E-10   5.000000E-10   1.000000E-10   1.000000E-10   1.000000E-10   1.000000E-10   1.000000E-10   1.000000E-10   2.000000E-10   0.000000E+00
   8.000000E-10   5.000000E-10   1.000000E-10   1.000000E-10   1.000000E-10   1.000000E-10   1.000000E-10   1.000000E-10   1.000000E-10   1.000000E-10
   8.000000E-10   5.000000E-10   5.000000E-10   2.000000E-10   2.000000E-10   1.000000E-10   1.000000E-10   1.000000E-10   1.000000E-10   5.000000E-10
   8.000000E-10   5.000000E-10   5.000000E-10   2.000000E-10   2.000000E-10   1.000000E-10   1.000000E-10   2.000000E-10   2.000000E-10   0.000000E+00
   0.000000E+00   5.000000E-10   5.000000E-10   2.000000E-10   2.000000E-10   1.000000E-10   1.000000E-10   2.000000E-10   5.000000E-10   0.000000E+00
   0.000000E+00   5.000000E-10   5.000000E-10   2.000000E-10   2.000000E-10   1.000000E-10   1.000000E-10   2.000000E-10   5.000000E-10   0.000000E+00
   0.000000E+00   5.000000E-10   5.000000E-10   2.000000E-10   2.000000E-10   1.000000E-10   1.000000E-10   2.000000E-10   5.000000E-10   8.000000E-10
   0.000000E+00   1.000000E-10   1.000000E-10   1.000000E-10   1.000000E-10   1.000000E-10   1.000000E-10   2.000000E-10   5.000000E-10   0.000000E+00
   1.000000E-10   1.000000E-10   1.000000E-10   1.000000E-10   1.000000E-10   1.000000E-10   1.000000E-10   1.000000E-10   2.000000E-10   0.000000E+00
   1.000000E-10   1.000000E-10   2.000000E-10   2.000000E-10   2.000000E-10   2.000000E-10   2.000000E-10   1.000000E-10   1.000000E-10   0.000000E+00
   0.000000E+00   2.000000E-10   5.000000E-10   5.000000E-10   5.000000E-10   5.000000E-10   5.000000E-10   2.000000E-10   1.000000E-10   0.000000E+00
   0.000000E+00   0.000000E+00   8.000000E-10   8.000000E-10   8.000000E-10   8.000000E-10   0.000000E+00   0.000000E+00   0.000000E+00   0.000000E+00
         1 #pet for stress period 8
CONSTANT    4.000000E-07                           #pet8                          
        -1 #extdp for stress period 8
        -1 #extwc for stress period 8
         1 #finf for stress period 9
INTERNAL               1  (10E15.6) -1 #finf9                         
   1.000000E-10   2.000000E-10   0.000000E+00   0.000000E+00   0.000000E+00   0.000000E+00   0.000000E+00   0.000000E+00   0.000000E+00   0.000000E+00
   2.000000E-10   1.000000E-10   2.000000E-10   0.000000E+00   0.000000E+00   8.000000E-10   8.000000E-10   5.000000E-10   0.000000E+00   0.000000E+00
   0.000000E+00   5.000000E-10   1.000000E-10   1.000000E-10   8.000000E-10   8.000000E-10   5.000000E-10   5.000000E-10   0.000000E+00   0.000000E+00
   8.000000E-10   5.000000E-10   1.000000E-10   1.000000E-10   1.000000E-10   1.000000E-10   1.000000E-10   1.000000E-10   2.000000E-10   0.000000E+00
   8.000000E-10   5.000000E-10   1.000000E-10   1.000000E-10   1.000000E-10   1.000000E-10   1.000000E-10   1.000000E-10   1.000000E-10   1.000000E-10
   8.000000E-10   5.000000E-10   5.000000E-10   2.000000E-10   2.000000E-10   1.000000E-10   1.000000E-10   1.000000E-10   1.000000E-10   5.000000E-10
   8.000000E-10   5.000000E-10   5.000000E-10   2.000000E-10   2.000000E-10   1.000000E-10   1.000000E-10   2.000000E-10   2.000000E-10   0.000000E+00
   0.000000E+00   5.000000E-10   5.000000E-10   2.000000E-10   2.000000E-10   1.000000E-10   1.000000E-10   2.000000E-10   5.000000E-10   0.000000E+00
   0.000000E+00   5.000000E-10   5.000000E-10   2.000000E-10   2.000000E-10   1.000000E-10   1.000000E-10   2.000000E-10   5.000000E-10   0.000000E+00
   0.000000E+00   5.000000E-10   5.000000E-10   2.000000E-10   2.000000E-10   1.000000E-10   1.000000E-10   2.000000E-10   5.000000E-10   8.000000E-10
   0.000000E+00   1.000000E-10   1.000000E-10   1.000000E-10   1.000000E-10   1.000000E-10   1.000000E-10   2.000000E-10   5.000000E-10   0.000000E+00
   1.000000E-10   1.000000E-10   1.000000E-10   1.000000E-10   1.000000E-10   1.000000E-10   1.000000E-10   1.000000E-10   2.000000E-10   0.000000E+00
   1.000000E-10   1.000000E-10   2.000000E-10   2.000000E-10   2.000000E-10   2.000000E-10   2.000000E-10   1.000000E-10   1.000000E-10   0.000000E+00
   0.000000E+00   2.000000E-10   5.000000E-10   5.000000E-10   5.000000E-10   5.000000E-10   5.000000E-10   2.000000E-10   1.000000E-10   0.000000E+00
   0.000000E+00   0.000000E+00   8.000000E-10   8.000000E-10   8.000000E-10   8.000000E-10   0.000000E+00   0.000000E+00   0.000000E+00   0.000000E+00
         1 #pet for stress period 9
CONSTANT    3.250000E-07                           #pet9                          
        -1 #extdp for stress period 9
        -1 #extwc for stress period 9
         1 #finf for stress period 10
INTERNAL               1  (10E15.6) -1 #finf10                        
   1.000000E-10   2.000000E-10   0.000000E+00   0.000000E+00   0.000000E+00   0.000000E+00   0.000000E+00   0.000000E+00   0.000000E+00   0.000000E+00
   2.000000E-10   1.000000E-10   2.000000E-10   0.000000E+00   0.000000E+00   8.000000E-10   8.000000E-10   5.000000E-10   0.000000E+00   0.000000E+00
   0.000000E+00   5.000000E-10   1.000000E-10   1.000000E-10   8.000000E-10   8.000000E-10   5.000000E-10   5.000000E-10   0.000000E+00   0.000000E+00
   8.000000E-10   5.000000E-10   1.000000E-10   1.000000E-10   1.000000E-10   1.000000E-10   1.000000E-10   1.000000E-10   2.000000E-10   0.000000E+00
   8.000000E-10   5.000000E-10   1.000000E-10   1.000000E-10   1.000000E-10   1.000000E-10   1.000000E-10   1.000000E-10   1.000000E-10   1.000000E-10
   8.000000E-10   5.000000E-10   5.000000E-10   2.000000E-10   2.000000E-10   1.000000E-10   1.000000E-10   1.000000E-10   1.000000E-10   5.000000E-10
   8.000000E-10   5.000000E-10   5.000000E-10   2.000000E-10   2.000000E-10   1.000000E-10   1.000000E-10   2.000000E-10   2.000000E-10   0.000000E+00
   0.000000E+00   5.000000E-10   5.000000E-10   2.000000E-10   2.000000E-10   1.000000E-10   1.000000E-10   2.000000E-10   5.000000E-10   0.000000E+00
   0.000000E+00   5.000000E-10   5.000000E-10   2.000000E-10   2.000000E-10   1.000000E-10   1.000000E-10   2.000000E-10   5.000000E-10   0.000000E+00
   0.000000E+00   5.000000E-10   5.000000E-10   2.000000E-10   2.000000E-10   1.000000E-10   1.000000E-10   2.000000E-10   5.000000E-10   8.000000E-10
   0.000000E+00   1.000000E-10   1.000000E-10   1.000000E-10   1.000000E-10   1.000000E-10   1.000000E-10   2.000000E-10   5.000000E-10   0.000000E+00
   1.000000E-10   1.000000E-10   1.000000E-10   1.000000E-10   1.000000E-10   1.000000E-10   1.000000E-10   1.000000E-10   2.000000E-10   0.000000E+00
   1.000000E-10   1.000000E-10   2.000000E-10   2.000000E-10   2.000000E-10   2.000000E-10   2.000000E-10   1.000000E-10   1.000000E-10   0.000000E+00
   0.000000E+00   2.000000E-10   5.000000E-10   5.000000E-10   5.000000E-10   5.000000E-10   5.000000E-10   2.000000E-10   1.000000E-10   0.000000E+00
   0.000000E+00   0.000000E+00   8.000000E-10   8.000000E-10   8.000000E-10   8.000000E-10   0.000000E+00   0.000000E+00   0.000000E+00   0.000000E+00
         1 #pet for stress period 10
CONSTANT    7.500000E-08                           #pet10                         
        -1 #extdp for stress period 10
        -1 #extwc for stress period 10
         1 #finf for stress period 11
INTERNAL               1  (10E15.6) -1 #finf11                        