# GHB package for MODFLOW-NWT generated by Flopy 3.3.6
         2       102
         2         0 # stress period 1
         1        13         1           988.0           0.038
         1        14         9          1045.0           0.038
         2         0 # stress period 2
         1        13         1           988.0           0.038
         1        14         9          1045.0           0.038
         2         0 # stress period 3
         1        13         1           988.0           0.038
         1        14         9          1045.0           0.038
         2         0 # stress period 4
         1        13         1           988.0           0.038
         1        14         9          1045.0           0.038
         2         0 # stress period 5
         1        13         1           988.0           0.038
         1        14         9          1045.0           0.038
         2         0 # stress period 6
         1        13         1           988.0           0.038
         1        14         9          1045.0           0.038
         2         0 # stress period 7
         1        13         1           988.0           0.038
         1        14         9          1045.0           0.038
         2         0 # stress period 8
         1        13         1           988.0           0.038
         1        14         9          1045.0           0.038
         2         0 # stress period 9
         1        13         1           988.0           0.038
         1        14         9          1045.0           0.038
         2         0 # stress period 10
         1        13         1           988.0           0.038
         1        14         9          1045.0           0.038
         2         0 # stress period 11
         1        13         1           988.0           0.038
         1        14         9          1045.0           0.038
         2         0 # stress period 12
         1        13         1           988.0           0.038
         1        14         9          1045.0           0.038
         2         0 # stress period 13
         1        13         1           988.0           0.038
         1        14         9          1045.0           0.038
         2         0 # stress period 14
         1        13         1           988.0           0.038
         1        14         9          1045.0           0.038
         2         0 # stress period 15
         1        13         1           988.0           0.038
         1        14         9          1045.0           0.038
         2         0 # stress period 16
         1        13         1           988.0           0.038
         1        14         9          1045.0           0.038
         2         0 # stress period 17
         1        13         1           988.0           0.038
         1        14         9          1045.0           0.038
         2         0 # stress period 18
         1        13         1           988.0           0.038
         1        14         9          1045.0           0.038
         2         0 # stress period 19
         1        13         1           988.0           0.038
         1        14         9          1045.0           0.038
         2         0 # stress period 20
         1        13         1           988.0           0.038
         1        14         9          1045.0           0.038
         2         0 # stress period 21
         1        13         1           988.0           0.038
         1        14         9          1045.0           0.038
         2         0 # stress period 22
         1        13         1           988.0           0.038
         1        14         9          1045.0           0.038
         2         0 # stress period 23
         1        13         1           988.0           0.038
         1        14         9          1045.0           0.038
         2         0 # stress period 24
         1        13         1           988.0           0.038
         1        14         9          1045.0           0.038
         2         0 # stress period 25
         1        13         1           988.0           0.038
         1        14         9          1045.0           0.038
         2         0 # stress period 26
         1        13         1           988.0           0.038
         1        14         9          1045.0           0.038
         2         0 # stress period 27
         1        13         1           988.0           0.038
         1        14         9          1045.0           0.038
         2         0 # stress period 28
         1        13         1           988.0           0.038
         1        14         9          1045.0           0.038
         2         0 # stress period 29
         1        13         1           988.0           0.038
         1        14         9          1045.0           0.038
         2         0 # stress period 30
         1        13         1           988.0           0.038
         1        14         9          1045.0           0.038
         2         0 # stress period 31
         1        13         1           988.0           0.038
         1        14         9          1045.0           0.038
         2         0 # stress period 32
         1        13         1           988.0           0.038
         1        14         9          1045.0           0.038
         2         0 # stress period 33
         1        13         1           988.0           0.038
         1        14         9          1045.0           0.038
         2         0 # stress period 34
         1        13         1           988.0           0.038
         1        14         9          1045.0           0.038
         2         0 # stress period 35
         1        13         1           988.0           0.038
         1        14         9          1045.0           0.038
         2         0 # stress period 36
         1        13         1           988.0           0.038
         1        14         9          1045.0           0.038
         2         0 # stress period 37
         1        13         1           988.0           0.038
         1        14         9          1045.0           0.038
         2         0 # stress period 38
         1        13         1           988.0           0.038
         1        14         9          1045.0           0.038
         2         0 # stress period 39
         1        13         1           988.0           0.038
         1        14         9          1045.0           0.038
         2         0 # stress period 40
         1        13         1           988.0           0.038
         1        14         9          1045.0           0.038
         2         0 # stress period 41
         1        13         1           988.0           0.038
         1        14         9          1045.0           0.038
         2         0 # stress period 42
         1        13         1           988.0           0.038
         1        14         9          1045.0           0.038
         2         0 # stress period 43
         1        13         1           988.0           0.038
         1        14         9          1045.0           0.038
         2         0 # stress period 44
         1        13         1           988.0           0.038
         1        14         9          1045.0           0.038
         2         0 # stress period 45
         1        13         1           988.0           0.038
         1        14         9          1045.0           0.038
         2         0 # stress period 46
         1        13         1           988.0           0.038
         1        14         9          1045.0           0.038
         2         0 # stress period 47
         1        13         1           988.0           0.038
         1        14         9          1045.0           0.038
         2         0 # stress period 48
         1        13         1           988.0           0.038
         1        14         9          1045.0           0.038
         2         0 # stress period 49
         1        13         1           988.0           0.038
         1        14         9          1045.0           0.038
