# UPW package for MODFLOW-NWT generated by Flopy 3.3.6
       102    -1E+30         0         0 
         1
         0
   1.000000E+00
         0
         0
INTERNAL               1  (10E15.6) -1 #hk layer 1                    
   2.000000E-03   2.000000E-03   0.000000E+00   0.000000E+00   0.000000E+00   0.000000E+00   0.000000E+00   0.000000E+00   0.000000E+00   0.000000E+00
   4.000000E-04   2.000000E-03   2.000000E-03   0.000000E+00   0.000000E+00   4.000000E-04   4.000000E-04   4.000000E-04   0.000000E+00   0.000000E+00
   0.000000E+00   4.000000E-04   2.000000E-03   2.000000E-03   4.000000E-04   4.000000E-04   4.000000E-04   4.000000E-04   0.000000E+00   0.000000E+00
   4.000000E-04   4.000000E-04   4.000000E-04   2.000000E-03   2.000000E-03   2.000000E-03   4.000000E-04   4.000000E-04   4.000000E-04   0.000000E+00
   4.000000E-04   4.000000E-04   4.000000E-04   2.000000E-03   2.000000E-03   2.000000E-03   2.000000E-03   2.000000E-03   2.000000E-03   2.000000E-03
   4.000000E-04   4.000000E-04   4.000000E-04   2.000000E-03   2.000000E-03   2.000000E-03   2.000000E-03   2.000000E-03   4.000000E-04   4.000000E-04
   4.000000E-04   4.000000E-04   4.000000E-04   2.000000E-03   2.000000E-03   2.000000E-03   2.000000E-03   2.000000E-03   4.000000E-04   0.000000E+00
   0.000000E+00   4.000000E-04   4.000000E-04   2.000000E-03   2.000000E-03   2.000000E-03   2.000000E-03   4.000000E-04   4.000000E-04   0.000000E+00
   0.000000E+00   4.000000E-04   4.000000E-04   2.000000E-03   2.000000E-03   2.000000E-03   2.000000E-03   4.000000E-04   4.000000E-04   0.000000E+00
   0.000000E+00   4.000000E-04   4.000000E-04   2.000000E-03   2.000000E-03   2.000000E-03   2.000000E-03   4.000000E-04   4.000000E-04   4.000000E-04
   0.000000E+00   4.000000E-04   4.000000E-04   2.000000E-03   2.000000E-03   2.000000E-03   2.000000E-03   4.000000E-04   4.000000E-04   0.000000E+00
   4.000000E-04   4.000000E-04   2.000000E-03   2.000000E-03   2.000000E-03   2.000000E-03   2.000000E-03   4.000000E-04   4.000000E-04   0.000000E+00
   2.000000E-03   2.000000E-03   2.000000E-03   2.000000E-03   2.000000E-03   2.000000E-03   2.000000E-03   2.000000E-03   2.000000E-03   0.000000E+00
   0.000000E+00   4.000000E-04   4.000000E-04   4.000000E-04   4.000000E-04   4.000000E-04   4.000000E-04   4.000000E-04   2.000000E-03   0.000000E+00
   0.000000E+00   0.000000E+00   4.000000E-04   4.000000E-04   4.000000E-04   4.000000E-04   0.000000E+00   0.000000E+00   0.000000E+00   0.000000E+00
CONSTANT    1.000000E-06                           #vka1                          
CONSTANT    1.000000E-06                           #ss layer 1                    
INTERNAL               1  (10E15.6) -1 #sy layer 1                    
   2.000000E-01   2.000000E-01   0.000000E+00   0.000000E+00   0.000000E+00   0.000000E+00   0.000000E+00   0.000000E+00   0.000000E+00   0.000000E+00
   1.000000E-01   2.000000E-01   2.000000E-01   0.000000E+00   0.000000E+00   1.000000E-01   1.000000E-01   1.000000E-01   0.000000E+00   0.000000E+00
   0.000000E+00   1.000000E-01   2.000000E-01   2.000000E-01   1.000000E-01   1.000000E-01   1.000000E-01   1.000000E-01   0.000000E+00   0.000000E+00
   1.000000E-01   1.000000E-01   1.000000E-01   2.000000E-01   2.000000E-01   2.000000E-01   1.000000E-01   1.000000E-01   1.000000E-01   0.000000E+00
   1.000000E-01   1.000000E-01   1.000000E-01   2.000000E-01   2.000000E-01   2.000000E-01   2.000000E-01   2.000000E-01   2.000000E-01   2.000000E-01
   1.000000E-01   1.000000E-01   1.000000E-01   2.000000E-01   2.000000E-01   2.000000E-01   2.000000E-01   2.000000E-01   1.000000E-01   1.000000E-01
   1.000000E-01   1.000000E-01   1.000000E-01   2.000000E-01   2.000000E-01   2.000000E-01   2.000000E-01   2.000000E-01   1.000000E-01   0.000000E+00
   0.000000E+00   1.000000E-01   1.000000E-01   2.000000E-01   2.000000E-01   2.000000E-01   2.000000E-01   1.000000E-01   1.000000E-01   0.000000E+00
   0.000000E+00   1.000000E-01   1.000000E-01   2.000000E-01   2.000000E-01   2.000000E-01   2.000000E-01   1.000000E-01   1.000000E-01   0.000000E+00
   0.000000E+00   1.000000E-01   1.000000E-01   2.000000E-01   2.000000E-01   2.000000E-01   2.000000E-01   1.000000E-01   1.000000E-01   1.000000E-01
   0.000000E+00   1.000000E-01   1.000000E-01   2.000000E-01   2.000000E-01   2.000000E-01   2.000000E-01   1.000000E-01   1.000000E-01   0.000000E+00
   1.000000E-01   1.000000E-01   2.000000E-01   2.000000E-01   2.000000E-01   2.000000E-01   2.000000E-01   1.000000E-01   1.000000E-01   0.000000E+00
   2.000000E-01   2.000000E-01   2.000000E-01   2.000000E-01   2.000000E-01   2.000000E-01   2.000000E-01   2.000000E-01   2.000000E-01   0.000000E+00
   0.000000E+00   1.000000E-01   1.000000E-01   1.000000E-01   1.000000E-01   1.000000E-01   1.000000E-01   1.000000E-01   2.000000E-01   0.000000E+00
   0.000000E+00   0.000000E+00   1.000000E-01   1.000000E-01   1.000000E-01   1.000000E-01   0.000000E+00   0.000000E+00   0.000000E+00   0.000000E+00
