# AG package for MODFLOW-NWT generated by Flopy 3.3.6
OPTIONS
IRRIGATION_DIVERSION 1 6
IRRIGATION_WELL 6 1
SUPPLEMENTAL_WELL 6 1
MAXWELLS 6
ETDEMAND
TIMESERIES_DIVERSION
WELLCBC 102
END
# ag time series
TIME SERIES 
DIVERSION   9   107
END 
# segment list for irrigation diversions
SEGMENT LIST
9
END 
# ag well list
WELL LIST 
1   6   4   -100.000000
1   6   5   -100.000000
1   7   4   -100.000000
1   7   5   -100.000000
1   8   4   -100.000000
1   8   5   -100.000000
END 
# ag stress period data
STRESS PERIOD 1
IRRDIVERSION 
0 
IRRWELL 
0 
SUPWELL 
0 
END 
STRESS PERIOD 2
IRRDIVERSION 
0 
IRRWELL 
0 
SUPWELL 
0 
END 
STRESS PERIOD 3
IRRDIVERSION 
0 
IRRWELL 
0 
SUPWELL 
0 
END 
STRESS PERIOD 4
IRRDIVERSION 
0 
IRRWELL 
0 
SUPWELL 
0 
END 
STRESS PERIOD 5
IRRDIVERSION 
1 
9   6   0   0
6   4   0.000000   0.166667
6   5   0.000000   0.166667
7   4   0.000000   0.166667
7   5   0.000000   0.166667
8   4   0.000000   0.166667
9   5   0.000000   0.166667
IRRWELL 
0 
SUPWELL 
6 
1   1
9   1.000000   1.000000
2   1
9   1.000000   1.000000
3   1
9   1.000000   1.000000
4   1
9   1.000000   1.000000
5   1
9   1.000000   1.000000
6   1
9   1.000000   1.000000
END 
STRESS PERIOD 6
IRRDIVERSION 
1 
9   6   0   0
6   4   0.000000   0.166667
6   5   0.000000   0.166667
7   4   0.000000   0.166667
7   5   0.000000   0.166667
8   4   0.000000   0.166667
9   5   0.000000   0.166667
IRRWELL 
0 
SUPWELL 
6 
1   1
9   1.000000   1.000000
2   1
9   1.000000   1.000000
3   1
9   1.000000   1.000000
4   1
9   1.000000   1.000000
5   1
9   1.000000   1.000000
6   1
9   1.000000   1.000000
END 
STRESS PERIOD 7
IRRDIVERSION 
1 
9   6   0   0
6   4   0.000000   0.166667
6   5   0.000000   0.166667
7   4   0.000000   0.166667
7   5   0.000000   0.166667
8   4   0.000000   0.166667
9   5   0.000000   0.166667
IRRWELL 
0 
SUPWELL 
6 
1   1
9   1.000000   1.000000
2   1
9   1.000000   1.000000
3   1
9   1.000000   1.000000
4   1
9   1.000000   1.000000
5   1
9   1.000000   1.000000
6   1
9   1.000000   1.000000
END 
STRESS PERIOD 8
IRRDIVERSION 
1 
9   6   0   0
6   4   0.000000   0.166667
6   5   0.000000   0.166667
7   4   0.000000   0.166667
7   5   0.000000   0.166667
8   4   0.000000   0.166667
9   5   0.000000   0.166667
IRRWELL 
0 
SUPWELL 
6 
1   1
9   1.000000   1.000000
2   1
9   1.000000   1.000000
3   1
9   1.000000   1.000000
4   1
9   1.000000   1.000000
5   1
9   1.000000   1.000000
6   1
9   1.000000   1.000000
END 
STRESS PERIOD 9
IRRDIVERSION 
1 
9   6   0   0
6   4   0.000000   0.166667
6   5   0.000000   0.166667
7   4   0.000000   0.166667
7   5   0.000000   0.166667
8   4   0.000000   0.166667
9   5   0.000000   0.166667
IRRWELL 
0 
SUPWELL 
6 
1   1
9   1.000000   1.000000
2   1
9   1.000000   1.000000
3   1
9   1.000000   1.000000
4   1
9   1.000000   1.000000
5   1
9   1.000000   1.000000
6   1
9   1.000000   1.000000
END 
STRESS PERIOD 10
IRRDIVERSION 
1 
9   6   0   0
6   4   0.000000   0.166667
6   5   0.000000   0.166667
7   4   0.000000   0.166667
7   5   0.000000   0.166667
8   4   0.000000   0.166667
9   5   0.000000   0.166667
IRRWELL 
0 
SUPWELL 
6 
1   1
9   1.000000   1.000000
2   1
9   1.000000   1.000000
3   1
9   1.000000   1.000000
4   1
9   1.000000   1.000000
5   1
9   1.000000   1.000000
6   1
9   1.000000   1.000000
END 
STRESS PERIOD 11
IRRDIVERSION 
1 
9   6   0   0
6   4   0.000000   0.166667
6   5   0.000000   0.166667
7   4   0.000000   0.166667
7   5   0.000000   0.166667
8   4   0.000000   0.166667
9   5   0.000000   0.166667
IRRWELL 
0 
SUPWELL 
6 
1   1
9   1.000000   1.000000
2   1
9   1.000000   1.000000
3   1
9   1.000000   1.000000
4   1
9   1.000000   1.000000
5   1
9   1.000000   1.000000
6   1
9   1.000000   1.000000
END 
STRESS PERIOD 12
IRRDIVERSION 
1 
9   6   0   0
6   4   0.000000   0.166667
6   5   0.000000   0.166667
7   4   0.000000   0.166667
7   5   0.000000   0.166667
8   4   0.000000   0.166667
9   5   0.000000   0.166667
IRRWELL 
0 
SUPWELL 
6 
1   1
9   1.000000   1.000000
2   1
9   1.000000   1.000000
3   1
9   1.000000   1.000000
4   1
9   1.000000   1.000000
5   1
9   1.000000   1.000000
6   1
9   1.000000   1.000000
END 
STRESS PERIOD 13
IRRDIVERSION 
1 
9   6   0   0
6   4   0.000000   0.166667
6   5   0.000000   0.166667
7   4   0.000000   0.166667
7   5   0.000000   0.166667
8   4   0.000000   0.166667
9   5   0.000000   0.166667
IRRWELL 
0 
SUPWELL 
6 
1   1
9   1.000000   1.000000
2   1
9   1.000000   1.000000
3   1
9   1.000000   1.000000
4   1
9   1.000000   1.000000
5   1
9   1.000000   1.000000
6   1
9   1.000000   1.000000
END 
STRESS PERIOD 14
IRRDIVERSION 
1 
9   6   0   0
6   4   0.000000   0.166667
6   5   0.000000   0.166667
7   4   0.000000   0.166667
7   5   0.000000   0.166667
8   4   0.000000   0.166667
9   5   0.000000   0.166667
IRRWELL 
0 
SUPWELL 
6 
1   1
9   1.000000   1.000000
2   1
9   1.000000   1.000000
3   1
9   1.000000   1.000000
4   1
9   1.000000   1.000000
5   1
9   1.000000   1.000000
6   1
9   1.000000   1.000000
END 
STRESS PERIOD 15
IRRDIVERSION 
1 
9   6   0   0
6   4   0.000000   0.166667
6   5   0.000000   0.166667
7   4   0.000000   0.166667
7   5   0.000000   0.166667
8   4   0.000000   0.166667
9   5   0.000000   0.166667
IRRWELL 
0 
SUPWELL 
6 
1   1
9   1.000000   1.000000
2   1
9   1.000000   1.000000
3   1
9   1.000000   1.000000
4   1
9   1.000000   1.000000
5   1
9   1.000000   1.000000
6   1
9   1.000000   1.000000
END 
STRESS PERIOD 16
IRRDIVERSION 
1 
9   6   0   0
6   4   0.000000   0.166667
6   5   0.000000   0.166667
7   4   0.000000   0.166667
7   5   0.000000   0.166667
8   4   0.000000   0.166667
9   5   0.000000   0.166667
IRRWELL 
0 
SUPWELL 
6 
1   1
9   1.000000   1.000000
2   1
9   1.000000   1.000000
3   1
9   1.000000   1.000000
4   1
9   1.000000   1.000000
5   1
9   1.000000   1.000000
6   1
9   1.000000   1.000000
END 
STRESS PERIOD 17
IRRDIVERSION 
1 
9   6   0   0
6   4   0.000000   0.166667
6   5   0.000000   0.166667
7   4   0.000000   0.166667
7   5   0.000000   0.166667
8   4   0.000000   0.166667
9   5   0.000000   0.166667
IRRWELL 
0 
SUPWELL 
6 
1   1
9   1.000000   1.000000
2   1
9   1.000000   1.000000
3   1
9   1.000000   1.000000
4   1
9   1.000000   1.000000
5   1
9   1.000000   1.000000
6   1
9   1.000000   1.000000
END 
STRESS PERIOD 18
IRRDIVERSION 
1 
9   6   0   0
6   4   0.000000   0.166667
6   5   0.000000   0.166667
7   4   0.000000   0.166667
7   5   0.000000   0.166667
8   4   0.000000   0.166667
9   5   0.000000   0.166667
IRRWELL 
0 
SUPWELL 
6 
1   1
9   1.000000   1.000000
2   1
9   1.000000   1.000000
3   1
9   1.000000   1.000000
4   1
9   1.000000   1.000000
5   1
9   1.000000   1.000000
6   1
9   1.000000   1.000000
END 
STRESS PERIOD 19
IRRDIVERSION 
1 
9   6   0   0
6   4   0.000000   0.166667
6   5   0.000000   0.166667
7   4   0.000000   0.166667
7   5   0.000000   0.166667
8   4   0.000000   0.166667
9   5   0.000000   0.166667
IRRWELL 
0 
SUPWELL 
6 
1   1
9   1.000000   1.000000
2   1
9   1.000000   1.000000
3   1
9   1.000000   1.000000
4   1
9   1.000000   1.000000
5   1
9   1.000000   1.000000
6   1
9   1.000000   1.000000
END 
STRESS PERIOD 20
IRRDIVERSION 
1 
9   6   0   0
6   4   0.000000   0.166667
6   5   0.000000   0.166667
7   4   0.000000   0.166667
7   5   0.000000   0.166667
8   4   0.000000   0.166667
9   5   0.000000   0.166667
IRRWELL 
0 
SUPWELL 
6 
1   1
9   1.000000   1.000000
2   1
9   1.000000   1.000000
3   1
9   1.000000   1.000000
4   1
9   1.000000   1.000000
5   1
9   1.000000   1.000000
6   1
9   1.000000   1.000000
END 
STRESS PERIOD 21
IRRDIVERSION 
1 
9   6   0   0
6   4   0.000000   0.166667
6   5   0.000000   0.166667
7   4   0.000000   0.166667
7   5   0.000000   0.166667
8   4   0.000000   0.166667
9   5   0.000000   0.166667
IRRWELL 
0 
SUPWELL 
6 
1   1
9   1.000000   1.000000
2   1
9   1.000000   1.000000
3   1
9   1.000000   1.000000
4   1
9   1.000000   1.000000
5   1
9   1.000000   1.000000
6   1
9   1.000000   1.000000
END 
STRESS PERIOD 22
IRRDIVERSION 
1 
9   6   0   0
6   4   0.000000   0.166667
6   5   0.000000   0.166667
7   4   0.000000   0.166667
7   5   0.000000   0.166667
8   4   0.000000   0.166667
9   5   0.000000   0.166667
IRRWELL 
0 
SUPWELL 
6 
1   1
9   1.000000   1.000000
2   1
9   1.000000   1.000000
3   1
9   1.000000   1.000000
4   1
9   1.000000   1.000000
5   1
9   1.000000   1.000000
6   1
9   1.000000   1.000000
END 
STRESS PERIOD 23
IRRDIVERSION 
1 
9   6   0   0
6   4   0.000000   0.166667
6   5   0.000000   0.166667
7   4   0.000000   0.166667
7   5   0.000000   0.166667
8   4   0.000000   0.166667
9   5   0.000000   0.166667
IRRWELL 
0 
SUPWELL 
6 
1   1
9   1.000000   1.000000
2   1
9   1.000000   1.000000
3   1
9   1.000000   1.000000
4   1
9   1.000000   1.000000
5   1
9   1.000000   1.000000
6   1
9   1.000000   1.000000
END 
STRESS PERIOD 24
IRRDIVERSION 
1 
9   6   0   0
6   4   0.000000   0.166667
6   5   0.000000   0.166667
7   4   0.000000   0.166667
7   5   0.000000   0.166667
8   4   0.000000   0.166667
9   5   0.000000   0.166667
IRRWELL 
0 
SUPWELL 
6 
1   1
9   1.000000   1.000000
2   1
9   1.000000   1.000000
3   1
9   1.000000   1.000000
4   1
9   1.000000   1.000000
5   1
9   1.000000   1.000000
6   1
9   1.000000   1.000000
END 
STRESS PERIOD 25
IRRDIVERSION 
1 
9   6   0   0
6   4   0.000000   0.166667
6   5   0.000000   0.166667
7   4   0.000000   0.166667
7   5   0.000000   0.166667
8   4   0.000000   0.166667
9   5   0.000000   0.166667
IRRWELL 
0 
SUPWELL 
6 
1   1
9   1.000000   1.000000
2   1
9   1.000000   1.000000
3   1
9   1.000000   1.000000
4   1
9   1.000000   1.000000
5   1
9   1.000000   1.000000
6   1
9   1.000000   1.000000
END 
STRESS PERIOD 26
IRRDIVERSION 
1 
9   6   0   0
6   4   0.000000   0.166667
6   5   0.000000   0.166667
7   4   0.000000   0.166667
7   5   0.000000   0.166667
8   4   0.000000   0.166667
9   5   0.000000   0.166667
IRRWELL 
0 
SUPWELL 
6 
1   1
9   1.000000   1.000000
2   1
9   1.000000   1.000000
3   1
9   1.000000   1.000000
4   1
9   1.000000   1.000000
5   1
9   1.000000   1.000000
6   1
9   1.000000   1.000000
END 
STRESS PERIOD 27
IRRDIVERSION 
1 
9   6   0   0
6   4   0.000000   0.166667
6   5   0.000000   0.166667
7   4   0.000000   0.166667
7   5   0.000000   0.166667
8   4   0.000000   0.166667
9   5   0.000000   0.166667
IRRWELL 
0 
SUPWELL 
6 
1   1
9   1.000000   1.000000
2   1
9   1.000000   1.000000
3   1
9   1.000000   1.000000
4   1
9   1.000000   1.000000
5   1
9   1.000000   1.000000
6   1
9   1.000000   1.000000
END 
STRESS PERIOD 28
IRRDIVERSION 
1 
9   6   0   0
6   4   0.000000   0.166667
6   5   0.000000   0.166667
7   4   0.000000   0.166667
7   5   0.000000   0.166667
8   4   0.000000   0.166667
9   5   0.000000   0.166667
IRRWELL 
0 
SUPWELL 
6 
1   1
9   1.000000   1.000000
2   1
9   1.000000   1.000000
3   1
9   1.000000   1.000000
4   1
9   1.000000   1.000000
5   1
9   1.000000   1.000000
6   1
9   1.000000   1.000000
END 
STRESS PERIOD 29
IRRDIVERSION 
1 
9   6   0   0
6   4   0.000000   0.166667
6   5   0.000000   0.166667
7   4   0.000000   0.166667
7   5   0.000000   0.166667
8   4   0.000000   0.166667
9   5   0.000000   0.166667
IRRWELL 
0 
SUPWELL 
6 
1   1
9   1.000000   1.000000
2   1
9   1.000000   1.000000
3   1
9   1.000000   1.000000
4   1
9   1.000000   1.000000
5   1
9   1.000000   1.000000
6   1
9   1.000000   1.000000
END 
STRESS PERIOD 30
IRRDIVERSION 
1 
9   6   0   0
6   4   0.000000   0.166667
6   5   0.000000   0.166667
7   4   0.000000   0.166667
7   5   0.000000   0.166667
8   4   0.000000   0.166667
9   5   0.000000   0.166667
IRRWELL 
0 
SUPWELL 
6 
1   1
9   1.000000   1.000000
2   1
9   1.000000   1.000000
3   1
9   1.000000   1.000000
4   1
9   1.000000   1.000000
5   1
9   1.000000   1.000000
6   1
9   1.000000   1.000000
END 
STRESS PERIOD 31
IRRDIVERSION 
1 
9   6   0   0
6   4   0.000000   0.166667
6   5   0.000000   0.166667
7   4   0.000000   0.166667
7   5   0.000000   0.166667
8   4   0.000000   0.166667
9   5   0.000000   0.166667
IRRWELL 
0 
SUPWELL 
6 
1   1
9   1.000000   1.000000
2   1
9   1.000000   1.000000
3   1
9   1.000000   1.000000
4   1
9   1.000000   1.000000
5   1
9   1.000000   1.000000
6   1
9   1.000000   1.000000
END 
STRESS PERIOD 32
IRRDIVERSION 
1 
9   6   0   0
6   4   0.000000   0.166667
6   5   0.000000   0.166667
7   4   0.000000   0.166667
7   5   0.000000   0.166667
8   4   0.000000   0.166667
9   5   0.000000   0.166667
IRRWELL 
0 
SUPWELL 
6 
1   1
9   1.000000   1.000000
2   1
9   1.000000   1.000000
3   1
9   1.000000   1.000000
4   1
9   1.000000   1.000000
5   1
9   1.000000   1.000000
6   1
9   1.000000   1.000000
END 
STRESS PERIOD 33
IRRDIVERSION 
1 
9   6   0   0
6   4   0.000000   0.166667
6   5   0.000000   0.166667
7   4   0.000000   0.166667
7   5   0.000000   0.166667
8   4   0.000000   0.166667
9   5   0.000000   0.166667
IRRWELL 
0 
SUPWELL 
6 
1   1
9   1.000000   1.000000
2   1
9   1.000000   1.000000
3   1
9   1.000000   1.000000
4   1
9   1.000000   1.000000
5   1
9   1.000000   1.000000
6   1
9   1.000000   1.000000
END 
STRESS PERIOD 34
IRRDIVERSION 
1 
9   6   0   0
6   4   0.000000   0.166667
6   5   0.000000   0.166667
7   4   0.000000   0.166667
7   5   0.000000   0.166667
8   4   0.000000   0.166667
9   5   0.000000   0.166667
IRRWELL 
0 
SUPWELL 
6 
1   1
9   1.000000   1.000000
2   1
9   1.000000   1.000000
3   1
9   1.000000   1.000000
4   1
9   1.000000   1.000000
5   1
9   1.000000   1.000000
6   1
9   1.000000   1.000000
END 
STRESS PERIOD 35
IRRDIVERSION 
1 
9   6   0   0
6   4   0.000000   0.166667
6   5   0.000000   0.166667
7   4   0.000000   0.166667
7   5   0.000000   0.166667
8   4   0.000000   0.166667
9   5   0.000000   0.166667
IRRWELL 
0 
SUPWELL 
6 
1   1
9   1.000000   1.000000
2   1
9   1.000000   1.000000
3   1
9   1.000000   1.000000
4   1
9   1.000000   1.000000
5   1
9   1.000000   1.000000
6   1
9   1.000000   1.000000
END 
STRESS PERIOD 36
IRRDIVERSION 
1 
9   6   0   0
6   4   0.000000   0.166667
6   5   0.000000   0.166667
7   4   0.000000   0.166667
7   5   0.000000   0.166667
8   4   0.000000   0.166667
9   5   0.000000   0.166667
IRRWELL 
0 
SUPWELL 
6 
1   1
9   1.000000   1.000000
2   1
9   1.000000   1.000000
3   1
9   1.000000   1.000000
4   1
9   1.000000   1.000000
5   1
9   1.000000   1.000000
6   1
9   1.000000   1.000000
END 
STRESS PERIOD 37
IRRDIVERSION 
1 
9   6   0   0
6   4   0.000000   0.166667
6   5   0.000000   0.166667
7   4   0.000000   0.166667
7   5   0.000000   0.166667
8   4   0.000000   0.166667
9   5   0.000000   0.166667
IRRWELL 
0 
SUPWELL 
6 
1   1
9   1.000000   1.000000
2   1
9   1.000000   1.000000
3   1
9   1.000000   1.000000
4   1
9   1.000000   1.000000
5   1
9   1.000000   1.000000
6   1
9   1.000000   1.000000
END 
STRESS PERIOD 38
IRRDIVERSION 
1 
9   6   0   0
6   4   0.000000   0.166667
6   5   0.000000   0.166667
7   4   0.000000   0.166667
7   5   0.000000   0.166667
8   4   0.000000   0.166667
9   5   0.000000   0.166667
IRRWELL 
0 
SUPWELL 
6 
1   1
9   1.000000   1.000000
2   1
9   1.000000   1.000000
3   1
9   1.000000   1.000000
4   1
9   1.000000   1.000000
5   1
9   1.000000   1.000000
6   1
9   1.000000   1.000000
END 
STRESS PERIOD 39
IRRDIVERSION 
1 
9   6   0   0
6   4   0.000000   0.166667
6   5   0.000000   0.166667
7   4   0.000000   0.166667
7   5   0.000000   0.166667
8   4   0.000000   0.166667
9   5   0.000000   0.166667
IRRWELL 
0 
SUPWELL 
6 
1   1
9   1.000000   1.000000
2   1
9   1.000000   1.000000
3   1
9   1.000000   1.000000
4   1
9   1.000000   1.000000
5   1
9   1.000000   1.000000
6   1
9   1.000000   1.000000
END 
STRESS PERIOD 40
IRRDIVERSION 
1 
9   6   0   0
6   4   0.000000   0.166667
6   5   0.000000   0.166667
7   4   0.000000   0.166667
7   5   0.000000   0.166667
8   4   0.000000   0.166667
9   5   0.000000   0.166667
IRRWELL 
0 
SUPWELL 
6 
1   1
9   1.000000   1.000000
2   1
9   1.000000   1.000000
3   1
9   1.000000   1.000000
4   1
9   1.000000   1.000000
5   1
9   1.000000   1.000000
6   1
9   1.000000   1.000000
END 
STRESS PERIOD 41
IRRDIVERSION 
1 
9   6   0   0
6   4   0.000000   0.166667
6   5   0.000000   0.166667
7   4   0.000000   0.166667
7   5   0.000000   0.166667
8   4   0.000000   0.166667
9   5   0.000000   0.166667
IRRWELL 
0 
SUPWELL 
6 
1   1
9   1.000000   1.000000
2   1
9   1.000000   1.000000
3   1
9   1.000000   1.000000
4   1
9   1.000000   1.000000
5   1
9   1.000000   1.000000
6   1
9   1.000000   1.000000
END 
STRESS PERIOD 42
IRRDIVERSION 
1 
9   6   0   0
6   4   0.000000   0.166667
6   5   0.000000   0.166667
7   4   0.000000   0.166667
7   5   0.000000   0.166667
8   4   0.000000   0.166667
9   5   0.000000   0.166667
IRRWELL 
0 
SUPWELL 
6 
1   1
9   1.000000   1.000000
2   1
9   1.000000   1.000000
3   1
9   1.000000   1.000000
4   1
9   1.000000   1.000000
5   1
9   1.000000   1.000000
6   1
9   1.000000   1.000000
END 
STRESS PERIOD 43
IRRDIVERSION 
1 
9   6   0   0
6   4   0.000000   0.166667
6   5   0.000000   0.166667
7   4   0.000000   0.166667
7   5   0.000000   0.166667
8   4   0.000000   0.166667
9   5   0.000000   0.166667
IRRWELL 
0 
SUPWELL 
6 
1   1
9   1.000000   1.000000
2   1
9   1.000000   1.000000
3   1
9   1.000000   1.000000
4   1
9   1.000000   1.000000
5   1
9   1.000000   1.000000
6   1
9   1.000000   1.000000
END 
STRESS PERIOD 44
IRRDIVERSION 
1 
9   6   0   0
6   4   0.000000   0.166667
6   5   0.000000   0.166667
7   4   0.000000   0.166667
7   5   0.000000   0.166667
8   4   0.000000   0.166667
9   5   0.000000   0.166667
IRRWELL 
0 
SUPWELL 
6 
1   1
9   1.000000   1.000000
2   1
9   1.000000   1.000000
3   1
9   1.000000   1.000000
4   1
9   1.000000   1.000000
5   1
9   1.000000   1.000000
6   1
9   1.000000   1.000000
END 
STRESS PERIOD 45
IRRDIVERSION 
1 
9   6   0   0
6   4   0.000000   0.166667
6   5   0.000000   0.166667
7   4   0.000000   0.166667
7   5   0.000000   0.166667
8   4   0.000000   0.166667
9   5   0.000000   0.166667
IRRWELL 
0 
SUPWELL 
6 
1   1
9   1.000000   1.000000
2   1
9   1.000000   1.000000
3   1
9   1.000000   1.000000
4   1
9   1.000000   1.000000
5   1
9   1.000000   1.000000
6   1
9   1.000000   1.000000
END 
STRESS PERIOD 46
IRRDIVERSION 
1 
9   6   0   0
6   4   0.000000   0.166667
6   5   0.000000   0.166667
7   4   0.000000   0.166667
7   5   0.000000   0.166667
8   4   0.000000   0.166667
9   5   0.000000   0.166667
IRRWELL 
0 
SUPWELL 
6 
1   1
9   1.000000   1.000000
2   1
9   1.000000   1.000000
3   1
9   1.000000   1.000000
4   1
9   1.000000   1.000000
5   1
9   1.000000   1.000000
6   1
9   1.000000   1.000000
END 
STRESS PERIOD 47
IRRDIVERSION 
1 
9   6   0   0
6   4   0.000000   0.166667
6   5   0.000000   0.166667
7   4   0.000000   0.166667
7   5   0.000000   0.166667
8   4   0.000000   0.166667
9   5   0.000000   0.166667
IRRWELL 
0 
SUPWELL 
6 
1   1
9   1.000000   1.000000
2   1
9   1.000000   1.000000
3   1
9   1.000000   1.000000
4   1
9   1.000000   1.000000
5   1
9   1.000000   1.000000
6   1
9   1.000000   1.000000
END 
STRESS PERIOD 48
IRRDIVERSION 
1 
9   6   0   0
6   4   0.000000   0.166667
6   5   0.000000   0.166667
7   4   0.000000   0.166667
7   5   0.000000   0.166667
8   4   0.000000   0.166667
9   5   0.000000   0.166667
IRRWELL 
0 
SUPWELL 
6 
1   1
9   1.000000   1.000000
2   1
9   1.000000   1.000000
3   1
9   1.000000   1.000000
4   1
9   1.000000   1.000000
5   1
9   1.000000   1.000000
6   1
9   1.000000   1.000000
END 
STRESS PERIOD 49
IRRDIVERSION 
1 
9   6   0   0
6   4   0.000000   0.166667
6   5   0.000000   0.166667
7   4   0.000000   0.166667
7   5   0.000000   0.166667
8   4   0.000000   0.166667
9   5   0.000000   0.166667
IRRWELL 
0 
SUPWELL 
6 
1   1
9   1.000000   1.000000
2   1
9   1.000000   1.000000
3   1
9   1.000000   1.000000
4   1
9   1.000000   1.000000
5   1
9   1.000000   1.000000
6   1
9   1.000000   1.000000
END 
