# SFR package for MODFLOW-NWT generated by Flopy 3.3.6
38 9 0 0 86400.00000000 0.00000100 102 0 
1 1 1 1 1 4500.0
1 2 2 1 2 7000.0
1 3 3 1 3 6000.0
1 3 4 1 4 5550.0
1 4 5 2 1 6500.0
1 5 6 2 2 5000.0
1 6 6 2 3 5000.0
1 7 6 2 4 5000.0
1 8 6 2 5 5000.0
1 3 5 3 1 5000.0
1 3 6 3 2 5000.0
1 3 7 3 3 4500.0
1 4 8 3 4 6000.0
1 5 8 3 5 5000.0
1 6 8 3 6 2000.0
1 5 10 4 1 2500.0
1 5 9 4 2 5000.0
1 6 8 4 3 3500.0
1 6 8 5 1 4000.0
1 7 7 5 2 5000.0
1 8 7 5 3 3500.0
1 8 6 5 4 2500.0
1 9 6 6 1 5000.0
1 10 7 6 2 5000.0
1 11 7 6 3 5000.0
1 12 7 6 4 5000.0
1 13 7 6 5 2000.0
1 14 9 7 1 5000.0
1 13 8 7 2 5500.0
1 13 7 7 3 5000.0
1 13 6 8 1 5000.0
1 13 5 8 2 5000.0
1 13 4 8 3 5000.0
1 13 3 8 4 5000.0
1 13 2 8 5 5000.0
1 13 1 8 6 3000.0
1 8 6 9 1 3000.0
1 8 5 9 2 3000.0
9 0 0
1 1 2 0 50.0 0 0 0 0.03 
3e-05 3.0 1093.048 12.0 
7.73e-05 3.0 1077.408 12.0 
2 1 6 0 0 0 0 0 0.03 
3e-05 3.0 1071.934 12.0 
7.73e-05 3.0 1052.359 12.0 
3 1 5 0 0 0 0 0 0.03 
3e-05 3.0 1073.636 10.0 
7.73e-05 3.0 1060.545 10.0 
4 1 5 0 10.0 0 0 0 0.03 
3e-05 3.0 1077.727 10.0 
7.73e-05 3.0 1063.182 10.0 
5 1 6 0 0 0 0 0 0.03 
3e-05 3.0 1058.0 15.0 
7.73e-05 3.0 1046.25 15.0 
6 1 8 0 0 0 0 0 0.03 
3e-05 3.0 1042.727 12.0 
7.73e-05 3.0 1025.909 12.0 
7 1 8 0 150.0 0 0 0 0.03 
3e-05 3.0 1037.581 55.0 
6e-05 3.0 1027.419 55.0 
8 1 0 0 0 0 0 0 0.03 
3e-05 3.0 1021.875 40.0 
6e-05 3.0 991.875 40.0 
9 1 0 2 0 100.0 0 0 0 0.03 
3e-05 3.0 1051.0 4.0 
1e-05 3.0 1050.0 4.0 
9 0 0
1 1 2 0 50.0 0 0 0 0.03 
3e-05 3.0 1093.048 12.0 
7.73e-05 3.0 1077.408 12.0 
2 1 6 0 0 0 0 0 0.03 
3e-05 3.0 1071.934 12.0 
7.73e-05 3.0 1052.359 12.0 
3 1 5 0 0 0 0 0 0.03 
3e-05 3.0 1073.636 10.0 
7.73e-05 3.0 1060.545 10.0 
4 1 5 0 10.0 0 0 0 0.03 
3e-05 3.0 1077.727 10.0 
7.73e-05 3.0 1063.182 10.0 
5 1 6 0 0 0 0 0 0.03 
3e-05 3.0 1058.0 15.0 
7.73e-05 3.0 1046.25 15.0 
6 1 8 0 0 0 0 0 0.03 
3e-05 3.0 1042.727 12.0 
7.73e-05 3.0 1025.909 12.0 
7 1 8 0 150.0 0 0 0 0.03 
3e-05 3.0 1037.581 55.0 
6e-05 3.0 1027.419 55.0 
8 1 0 0 0 0 0 0 0.03 
3e-05 3.0 1021.875 40.0 
6e-05 3.0 991.875 40.0 
9 1 0 2 0 100.0 0 0 0 0.03 
3e-05 3.0 1051.0 4.0 
1e-05 3.0 1050.0 4.0 
9 0 0
1 1 2 0 50.0 0 0 0 0.03 
3e-05 3.0 1093.048 12.0 
7.73e-05 3.0 1077.408 12.0 
2 1 6 0 0 0 0 0 0.03 
3e-05 3.0 1071.934 12.0 
7.73e-05 3.0 1052.359 12.0 
3 1 5 0 0 0 0 0 0.03 
3e-05 3.0 1073.636 10.0 
7.73e-05 3.0 1060.545 10.0 
4 1 5 0 10.0 0 0 0 0.03 
3e-05 3.0 1077.727 10.0 
7.73e-05 3.0 1063.182 10.0 
5 1 6 0 0 0 0 0 0.03 
3e-05 3.0 1058.0 15.0 
7.73e-05 3.0 1046.25 15.0 
6 1 8 0 0 0 0 0 0.03 
3e-05 3.0 1042.727 12.0 
7.73e-05 3.0 1025.909 12.0 
7 1 8 0 150.0 0 0 0 0.03 
3e-05 3.0 1037.581 55.0 
6e-05 3.0 1027.419 55.0 
8 1 0 0 0 0 0 0 0.03 
3e-05 3.0 1021.875 40.0 
6e-05 3.0 991.875 40.0 
9 1 0 2 0 100.0 0 0 0 0.03 
3e-05 3.0 1051.0 4.0 
1e-05 3.0 1050.0 4.0 
9 0 0
1 1 2 0 50.0 0 0 0 0.03 
3e-05 3.0 1093.048 12.0 
7.73e-05 3.0 1077.408 12.0 
2 1 6 0 0 0 0 0 0.03 
3e-05 3.0 1071.934 12.0 
7.73e-05 3.0 1052.359 12.0 
3 1 5 0 0 0 0 0 0.03 
3e-05 3.0 1073.636 10.0 
7.73e-05 3.0 1060.545 10.0 
4 1 5 0 10.0 0 0 0 0.03 
3e-05 3.0 1077.727 10.0 
7.73e-05 3.0 1063.182 10.0 
5 1 6 0 0 0 0 0 0.03 
3e-05 3.0 1058.0 15.0 
7.73e-05 3.0 1046.25 15.0 
6 1 8 0 0 0 0 0 0.03 
3e-05 3.0 1042.727 12.0 
7.73e-05 3.0 1025.909 12.0 
7 1 8 0 150.0 0 0 0 0.03 
3e-05 3.0 1037.581 55.0 
6e-05 3.0 1027.419 55.0 
8 1 0 0 0 0 0 0 0.03 
3e-05 3.0 1021.875 40.0 
6e-05 3.0 991.875 40.0 
9 1 0 2 0 100.0 0 0 0 0.03 
3e-05 3.0 1051.0 4.0 
1e-05 3.0 1050.0 4.0 
9 0 0
1 1 2 0 50.0 0 0 0 0.03 
3e-05 3.0 1093.048 12.0 
7.73e-05 3.0 1077.408 12.0 
2 1 6 0 0 0 0 0 0.03 
3e-05 3.0 1071.934 12.0 
7.73e-05 3.0 1052.359 12.0 
3 1 5 0 0 0 0 0 0.03 
3e-05 3.0 1073.636 10.0 
7.73e-05 3.0 1060.545 10.0 
4 1 5 0 10.0 0 0 0 0.03 
3e-05 3.0 1077.727 10.0 
7.73e-05 3.0 1063.182 10.0 
5 1 6 0 0 0 0 0 0.03 
3e-05 3.0 1058.0 15.0 
7.73e-05 3.0 1046.25 15.0 
6 1 8 0 0 0 0 0 0.03 
3e-05 3.0 1042.727 12.0 
7.73e-05 3.0 1025.909 12.0 
7 1 8 0 150.0 0 0 0 0.03 
3e-05 3.0 1037.581 55.0 
6e-05 3.0 1027.419 55.0 
8 1 0 0 0 0 0 0 0.03 
3e-05 3.0 1021.875 40.0 
6e-05 3.0 991.875 40.0 
9 1 0 2 0 100.0 0 0 0 0.03 
3e-05 3.0 1051.0 4.0 
1e-05 3.0 1050.0 4.0 
9 0 0
1 1 2 0 50.0 0 0 0 0.03 
3e-05 3.0 1093.048 12.0 
7.73e-05 3.0 1077.408 12.0 
2 1 6 0 0 0 0 0 0.03 
3e-05 3.0 1071.934 12.0 
7.73e-05 3.0 1052.359 12.0 
3 1 5 0 0 0 0 0 0.03 
3e-05 3.0 1073.636 10.0 
7.73e-05 3.0 1060.545 10.0 
4 1 5 0 10.0 0 0 0 0.03 
3e-05 3.0 1077.727 10.0 
7.73e-05 3.0 1063.182 10.0 
5 1 6 0 0 0 0 0 0.03 
3e-05 3.0 1058.0 15.0 
7.73e-05 3.0 1046.25 15.0 
6 1 8 0 0 0 0 0 0.03 
3e-05 3.0 1042.727 12.0 
7.73e-05 3.0 1025.909 12.0 
7 1 8 0 150.0 0 0 0 0.03 
3e-05 3.0 1037.581 55.0 
6e-05 3.0 1027.419 55.0 
8 1 0 0 0 0 0 0 0.03 
3e-05 3.0 1021.875 40.0 
6e-05 3.0 991.875 40.0 
9 1 0 2 0 100.0 0 0 0 0.03 
3e-05 3.0 1051.0 4.0 
1e-05 3.0 1050.0 4.0 
9 0 0
1 1 2 0 50.0 0 0 0 0.03 
3e-05 3.0 1093.048 12.0 
7.73e-05 3.0 1077.408 12.0 
2 1 6 0 0 0 0 0 0.03 
3e-05 3.0 1071.934 12.0 
7.73e-05 3.0 1052.359 12.0 
3 1 5 0 0 0 0 0 0.03 
3e-05 3.0 1073.636 10.0 
7.73e-05 3.0 1060.545 10.0 
4 1 5 0 10.0 0 0 0 0.03 
3e-05 3.0 1077.727 10.0 
7.73e-05 3.0 1063.182 10.0 
5 1 6 0 0 0 0 0 0.03 
3e-05 3.0 1058.0 15.0 
7.73e-05 3.0 1046.25 15.0 
6 1 8 0 0 0 0 0 0.03 
3e-05 3.0 1042.727 12.0 
7.73e-05 3.0 1025.909 12.0 
7 1 8 0 150.0 0 0 0 0.03 
3e-05 3.0 1037.581 55.0 
6e-05 3.0 1027.419 55.0 
8 1 0 0 0 0 0 0 0.03 
3e-05 3.0 1021.875 40.0 
6e-05 3.0 991.875 40.0 
9 1 0 2 0 100.0 0 0 0 0.03 
3e-05 3.0 1051.0 4.0 
1e-05 3.0 1050.0 4.0 
9 0 0
1 1 2 0 50.0 0 0 0 0.03 
3e-05 3.0 1093.048 12.0 
7.73e-05 3.0 1077.408 12.0 
2 1 6 0 0 0 0 0 0.03 
3e-05 3.0 1071.934 12.0 
7.73e-05 3.0 1052.359 12.0 
3 1 5 0 0 0 0 0 0.03 
3e-05 3.0 1073.636 10.0 
7.73e-05 3.0 1060.545 10.0 
4 1 5 0 10.0 0 0 0 0.03 
3e-05 3.0 1077.727 10.0 
7.73e-05 3.0 1063.182 10.0 
5 1 6 0 0 0 0 0 0.03 
3e-05 3.0 1058.0 15.0 
7.73e-05 3.0 1046.25 15.0 
6 1 8 0 0 0 0 0 0.03 
3e-05 3.0 1042.727 12.0 
7.73e-05 3.0 1025.909 12.0 
7 1 8 0 150.0 0 0 0 0.03 
3e-05 3.0 1037.581 55.0 
6e-05 3.0 1027.419 55.0 
8 1 0 0 0 0 0 0 0.03 
3e-05 3.0 1021.875 40.0 
6e-05 3.0 991.875 40.0 
9 1 0 2 0 100.0 0 0 0 0.03 
3e-05 3.0 1051.0 4.0 
1e-05 3.0 1050.0 4.0 
9 0 0
1 1 2 0 50.0 0 0 0 0.03 
3e-05 3.0 1093.048 12.0 
7.73e-05 3.0 1077.408 12.0 
2 1 6 0 0 0 0 0 0.03 
3e-05 3.0 1071.934 12.0 
7.73e-05 3.0 1052.359 12.0 
3 1 5 0 0 0 0 0 0.03 
3e-05 3.0 1073.636 10.0 
7.73e-05 3.0 1060.545 10.0 
4 1 5 0 10.0 0 0 0 0.03 
3e-05 3.0 1077.727 10.0 
7.73e-05 3.0 1063.182 10.0 
5 1 6 0 0 0 0 0 0.03 
3e-05 3.0 1058.0 15.0 
7.73e-05 3.0 1046.25 15.0 
6 1 8 0 0 0 0 0 0.03 
3e-05 3.0 1042.727 12.0 
7.73e-05 3.0 1025.909 12.0 
7 1 8 0 150.0 0 0 0 0.03 
3e-05 3.0 1037.581 55.0 
6e-05 3.0 1027.419 55.0 
8 1 0 0 0 0 0 0 0.03 
3e-05 3.0 1021.875 40.0 
6e-05 3.0 991.875 40.0 
9 1 0 2 0 100.0 0 0 0 0.03 
3e-05 3.0 1051.0 4.0 
1e-05 3.0 1050.0 4.0 
9 0 0
1 1 2 0 50.0 0 0 0 0.03 
3e-05 3.0 1093.048 12.0 
7.73e-05 3.0 1077.408 12.0 
2 1 6 0 0 0 0 0 0.03 
3e-05 3.0 1071.934 12.0 
7.73e-05 3.0 1052.359 12.0 
3 1 5 0 0 0 0 0 0.03 
3e-05 3.0 1073.636 10.0 
7.73e-05 3.0 1060.545 10.0 
4 1 5 0 10.0 0 0 0 0.03 
3e-05 3.0 1077.727 10.0 
7.73e-05 3.0 1063.182 10.0 
5 1 6 0 0 0 0 0 0.03 
3e-05 3.0 1058.0 15.0 
7.73e-05 3.0 1046.25 15.0 
6 1 8 0 0 0 0 0 0.03 
3e-05 3.0 1042.727 12.0 
7.73e-05 3.0 1025.909 12.0 
7 1 8 0 150.0 0 0 0 0.03 
3e-05 3.0 1037.581 55.0 
6e-05 3.0 1027.419 55.0 
8 1 0 0 0 0 0 0 0.03 
3e-05 3.0 1021.875 40.0 
6e-05 3.0 991.875 40.0 
9 1 0 2 0 100.0 0 0 0 0.03 
3e-05 3.0 1051.0 4.0 
1e-05 3.0 1050.0 4.0 
9 0 0
1 1 2 0 50.0 0 0 0 0.03 
3e-05 3.0 1093.048 12.0 
7.73e-05 3.0 1077.408 12.0 
2 1 6 0 0 0 0 0 0.03 
3e-05 3.0 1071.934 12.0 
7.73e-05 3.0 1052.359 12.0 
3 1 5 0 0 0 0 0 0.03 
3e-05 3.0 1073.636 10.0 
7.73e-05 3.0 1060.545 10.0 
4 1 5 0 10.0 0 0 0 0.03 
3e-05 3.0 1077.727 10.0 
7.73e-05 3.0 1063.182 10.0 
5 1 6 0 0 0 0 0 0.03 
3e-05 3.0 1058.0 15.0 
7.73e-05 3.0 1046.25 15.0 
6 1 8 0 0 0 0 0 0.03 
3e-05 3.0 1042.727 12.0 
7.73e-05 3.0 1025.909 12.0 
7 1 8 0 150.0 0 0 0 0.03 
3e-05 3.0 1037.581 55.0 
6e-05 3.0 1027.419 55.0 
8 1 0 0 0 0 0 0 0.03 
3e-05 3.0 1021.875 40.0 
6e-05 3.0 991.875 40.0 
9 1 0 2 0 100.0 0 0 0 0.03 
3e-05 3.0 1051.0 4.0 
1e-05 3.0 1050.0 4.0 
9 0 0
1 1 2 0 50.0 0 0 0 0.03 
3e-05 3.0 1093.048 12.0 
7.73e-05 3.0 1077.408 12.0 
2 1 6 0 0 0 0 0 0.03 
3e-05 3.0 1071.934 12.0 
7.73e-05 3.0 1052.359 12.0 
3 1 5 0 0 0 0 0 0.03 
3e-05 3.0 1073.636 10.0 
7.73e-05 3.0 1060.545 10.0 
4 1 5 0 10.0 0 0 0 0.03 
3e-05 3.0 1077.727 10.0 
7.73e-05 3.0 1063.182 10.0 
5 1 6 0 0 0 0 0 0.03 
3e-05 3.0 1058.0 15.0 
7.73e-05 3.0 1046.25 15.0 
6 1 8 0 0 0 0 0 0.03 
3e-05 3.0 1042.727 12.0 
7.73e-05 3.0 1025.909 12.0 
7 1 8 0 150.0 0 0 0 0.03 
3e-05 3.0 1037.581 55.0 
6e-05 3.0 1027.419 55.0 
8 1 0 0 0 0 0 0 0.03 
3e-05 3.0 1021.875 40.0 
6e-05 3.0 991.875 40.0 
9 1 0 2 0 100.0 0 0 0 0.03 
3e-05 3.0 1051.0 4.0 
1e-05 3.0 1050.0 4.0 
9 0 0
1 1 2 0 50.0 0 0 0 0.03 
3e-05 3.0 1093.048 12.0 
7.73e-05 3.0 1077.408 12.0 
2 1 6 0 0 0 0 0 0.03 
3e-05 3.0 1071.934 12.0 
7.73e-05 3.0 1052.359 12.0 
3 1 5 0 0 0 0 0 0.03 
3e-05 3.0 1073.636 10.0 
7.73e-05 3.0 1060.545 10.0 
4 1 5 0 10.0 0 0 0 0.03 
3e-05 3.0 1077.727 10.0 
7.73e-05 3.0 1063.182 10.0 
5 1 6 0 0 0 0 0 0.03 
3e-05 3.0 1058.0 15.0 
7.73e-05 3.0 1046.25 15.0 
6 1 8 0 0 0 0 0 0.03 
3e-05 3.0 1042.727 12.0 
7.73e-05 3.0 1025.909 12.0 
7 1 8 0 150.0 0 0 0 0.03 
3e-05 3.0 1037.581 55.0 
6e-05 3.0 1027.419 55.0 
8 1 0 0 0 0 0 0 0.03 
3e-05 3.0 1021.875 40.0 
6e-05 3.0 991.875 40.0 
9 1 0 2 0 100.0 0 0 0 0.03 
3e-05 3.0 1051.0 4.0 
1e-05 3.0 1050.0 4.0 
9 0 0
1 1 2 0 50.0 0 0 0 0.03 
3e-05 3.0 1093.048 12.0 
7.73e-05 3.0 1077.408 12.0 
2 1 6 0 0 0 0 0 0.03 
3e-05 3.0 1071.934 12.0 
7.73e-05 3.0 1052.359 12.0 
3 1 5 0 0 0 0 0 0.03 
3e-05 3.0 1073.636 10.0 
7.73e-05 3.0 1060.545 10.0 
4 1 5 0 10.0 0 0 0 0.03 
3e-05 3.0 1077.727 10.0 
7.73e-05 3.0 1063.182 10.0 
5 1 6 0 0 0 0 0 0.03 
3e-05 3.0 1058.0 15.0 
7.73e-05 3.0 1046.25 15.0 
6 1 8 0 0 0 0 0 0.03 
3e-05 3.0 1042.727 12.0 
7.73e-05 3.0 1025.909 12.0 
7 1 8 0 150.0 0 0 0 0.03 
3e-05 3.0 1037.581 55.0 
6e-05 3.0 1027.419 55.0 
8 1 0 0 0 0 0 0 0.03 
3e-05 3.0 1021.875 40.0 
6e-05 3.0 991.875 40.0 
9 1 0 2 0 100.0 0 0 0 0.03 
3e-05 3.0 1051.0 4.0 
1e-05 3.0 1050.0 4.0 
9 0 0
1 1 2 0 50.0 0 0 0 0.03 
3e-05 3.0 1093.048 12.0 
7.73e-05 3.0 1077.408 12.0 
2 1 6 0 0 0 0 0 0.03 
3e-05 3.0 1071.934 12.0 
7.73e-05 3.0 1052.359 12.0 
3 1 5 0 0 0 0 0 0.03 
3e-05 3.0 1073.636 10.0 
7.73e-05 3.0 1060.545 10.0 
4 1 5 0 10.0 0 0 0 0.03 
3e-05 3.0 1077.727 10.0 
7.73e-05 3.0 1063.182 10.0 
5 1 6 0 0 0 0 0 0.03 
3e-05 3.0 1058.0 15.0 
7.73e-05 3.0 1046.25 15.0 
6 1 8 0 0 0 0 0 0.03 
3e-05 3.0 1042.727 12.0 
7.73e-05 3.0 1025.909 12.0 
7 1 8 0 150.0 0 0 0 0.03 
3e-05 3.0 1037.581 55.0 
6e-05 3.0 1027.419 55.0 
8 1 0 0 0 0 0 0 0.03 
3e-05 3.0 1021.875 40.0 
6e-05 3.0 991.875 40.0 
9 1 0 2 0 100.0 0 0 0 0.03 
3e-05 3.0 1051.0 4.0 
1e-05 3.0 1050.0 4.0 
9 0 0
1 1 2 0 50.0 0 0 0 0.03 
3e-05 3.0 1093.048 12.0 
7.73e-05 3.0 1077.408 12.0 
2 1 6 0 0 0 0 0 0.03 
3e-05 3.0 1071.934 12.0 
7.73e-05 3.0 1052.359 12.0 
3 1 5 0 0 0 0 0 0.03 
3e-05 3.0 1073.636 10.0 
7.73e-05 3.0 1060.545 10.0 
4 1 5 0 10.0 0 0 0 0.03 
3e-05 3.0 1077.727 10.0 
7.73e-05 3.0 1063.182 10.0 
5 1 6 0 0 0 0 0 0.03 
3e-05 3.0 1058.0 15.0 
7.73e-05 3.0 1046.25 15.0 
6 1 8 0 0 0 0 0 0.03 
3e-05 3.0 1042.727 12.0 
7.73e-05 3.0 1025.909 12.0 
7 1 8 0 150.0 0 0 0 0.03 
3e-05 3.0 1037.581 55.0 
6e-05 3.0 1027.419 55.0 
8 1 0 0 0 0 0 0 0.03 
3e-05 3.0 1021.875 40.0 
6e-05 3.0 991.875 40.0 
9 1 0 2 0 100.0 0 0 0 0.03 
3e-05 3.0 1051.0 4.0 
1e-05 3.0 1050.0 4.0 
9 0 0
1 1 2 0 50.0 0 0 0 0.03 
3e-05 3.0 1093.048 12.0 
7.73e-05 3.0 1077.408 12.0 
2 1 6 0 0 0 0 0 0.03 
3e-05 3.0 1071.934 12.0 
7.73e-05 3.0 1052.359 12.0 
3 1 5 0 0 0 0 0 0.03 
3e-05 3.0 1073.636 10.0 
7.73e-05 3.0 1060.545 10.0 
4 1 5 0 10.0 0 0 0 0.03 
3e-05 3.0 1077.727 10.0 
7.73e-05 3.0 1063.182 10.0 
5 1 6 0 0 0 0 0 0.03 
3e-05 3.0 1058.0 15.0 
7.73e-05 3.0 1046.25 15.0 
6 1 8 0 0 0 0 0 0.03 
3e-05 3.0 1042.727 12.0 
7.73e-05 3.0 1025.909 12.0 
7 1 8 0 150.0 0 0 0 0.03 
3e-05 3.0 1037.581 55.0 
6e-05 3.0 1027.419 55.0 
8 1 0 0 0 0 0 0 0.03 
3e-05 3.0 1021.875 40.0 
6e-05 3.0 991.875 40.0 
9 1 0 2 0 100.0 0 0 0 0.03 
3e-05 3.0 1051.0 4.0 
1e-05 3.0 1050.0 4.0 
9 0 0
1 1 2 0 50.0 0 0 0 0.03 
3e-05 3.0 1093.048 12.0 
7.73e-05 3.0 1077.408 12.0 
2 1 6 0 0 0 0 0 0.03 
3e-05 3.0 1071.934 12.0 
7.73e-05 3.0 1052.359 12.0 
3 1 5 0 0 0 0 0 0.03 
3e-05 3.0 1073.636 10.0 
7.73e-05 3.0 1060.545 10.0 
4 1 5 0 10.0 0 0 0 0.03 
3e-05 3.0 1077.727 10.0 
7.73e-05 3.0 1063.182 10.0 
5 1 6 0 0 0 0 0 0.03 
3e-05 3.0 1058.0 15.0 
7.73e-05 3.0 1046.25 15.0 
6 1 8 0 0 0 0 0 0.03 
3e-05 3.0 1042.727 12.0 
7.73e-05 3.0 1025.909 12.0 
7 1 8 0 150.0 0 0 0 0.03 
3e-05 3.0 1037.581 55.0 
6e-05 3.0 1027.419 55.0 
8 1 0 0 0 0 0 0 0.03 
3e-05 3.0 1021.875 40.0 
6e-05 3.0 991.875 40.0 
9 1 0 2 0 100.0 0 0 0 0.03 
3e-05 3.0 1051.0 4.0 
1e-05 3.0 1050.0 4.0 
9 0 0
1 1 2 0 50.0 0 0 0 0.03 
3e-05 3.0 1093.048 12.0 
7.73e-05 3.0 1077.408 12.0 
2 1 6 0 0 0 0 0 0.03 
3e-05 3.0 1071.934 12.0 
7.73e-05 3.0 1052.359 12.0 
3 1 5 0 0 0 0 0 0.03 
3e-05 3.0 1073.636 10.0 
7.73e-05 3.0 1060.545 10.0 
4 1 5 0 10.0 0 0 0 0.03 
3e-05 3.0 1077.727 10.0 
7.73e-05 3.0 1063.182 10.0 
5 1 6 0 0 0 0 0 0.03 
3e-05 3.0 1058.0 15.0 
7.73e-05 3.0 1046.25 15.0 
6 1 8 0 0 0 0 0 0.03 
3e-05 3.0 1042.727 12.0 
7.73e-05 3.0 1025.909 12.0 
7 1 8 0 150.0 0 0 0 0.03 
3e-05 3.0 1037.581 55.0 
6e-05 3.0 1027.419 55.0 
8 1 0 0 0 0 0 0 0.03 
3e-05 3.0 1021.875 40.0 
6e-05 3.0 991.875 40.0 
9 1 0 2 0 100.0 0 0 0 0.03 
3e-05 3.0 1051.0 4.0 
1e-05 3.0 1050.0 4.0 
9 0 0
1 1 2 0 50.0 0 0 0 0.03 
3e-05 3.0 1093.048 12.0 
7.73e-05 3.0 1077.408 12.0 
2 1 6 0 0 0 0 0 0.03 
3e-05 3.0 1071.934 12.0 
7.73e-05 3.0 1052.359 12.0 
3 1 5 0 0 0 0 0 0.03 
3e-05 3.0 1073.636 10.0 
7.73e-05 3.0 1060.545 10.0 
4 1 5 0 10.0 0 0 0 0.03 
3e-05 3.0 1077.727 10.0 
7.73e-05 3.0 1063.182 10.0 
5 1 6 0 0 0 0 0 0.03 
3e-05 3.0 1058.0 15.0 
7.73e-05 3.0 1046.25 15.0 
6 1 8 0 0 0 0 0 0.03 
3e-05 3.0 1042.727 12.0 
7.73e-05 3.0 1025.909 12.0 
7 1 8 0 150.0 0 0 0 0.03 
3e-05 3.0 1037.581 55.0 
6e-05 3.0 1027.419 55.0 
8 1 0 0 0 0 0 0 0.03 
3e-05 3.0 1021.875 40.0 
6e-05 3.0 991.875 40.0 
9 1 0 2 0 100.0 0 0 0 0.03 
3e-05 3.0 1051.0 4.0 
1e-05 3.0 1050.0 4.0 
9 0 0
1 1 2 0 50.0 0 0 0 0.03 
3e-05 3.0 1093.048 12.0 
7.73e-05 3.0 1077.408 12.0 
2 1 6 0 0 0 0 0 0.03 
3e-05 3.0 1071.934 12.0 
7.73e-05 3.0 1052.359 12.0 
3 1 5 0 0 0 0 0 0.03 
3e-05 3.0 1073.636 10.0 
7.73e-05 3.0 1060.545 10.0 
4 1 5 0 10.0 0 0 0 0.03 
3e-05 3.0 1077.727 10.0 
7.73e-05 3.0 1063.182 10.0 
5 1 6 0 0 0 0 0 0.03 
3e-05 3.0 1058.0 15.0 
7.73e-05 3.0 1046.25 15.0 
6 1 8 0 0 0 0 0 0.03 
3e-05 3.0 1042.727 12.0 
7.73e-05 3.0 1025.909 12.0 
7 1 8 0 150.0 0 0 0 0.03 
3e-05 3.0 1037.581 55.0 
6e-05 3.0 1027.419 55.0 
8 1 0 0 0 0 0 0 0.03 
3e-05 3.0 1021.875 40.0 
6e-05 3.0 991.875 40.0 
9 1 0 2 0 100.0 0 0 0 0.03 
3e-05 3.0 1051.0 4.0 
1e-05 3.0 1050.0 4.0 
9 0 0
1 1 2 0 50.0 0 0 0 0.03 
3e-05 3.0 1093.048 12.0 
7.73e-05 3.0 1077.408 12.0 
2 1 6 0 0 0 0 0 0.03 
3e-05 3.0 1071.934 12.0 
7.73e-05 3.0 1052.359 12.0 
3 1 5 0 0 0 0 0 0.03 
3e-05 3.0 1073.636 10.0 
7.73e-05 3.0 1060.545 10.0 
4 1 5 0 10.0 0 0 0 0.03 
3e-05 3.0 1077.727 10.0 
7.73e-05 3.0 1063.182 10.0 
5 1 6 0 0 0 0 0 0.03 
3e-05 3.0 1058.0 15.0 
7.73e-05 3.0 1046.25 15.0 
6 1 8 0 0 0 0 0 0.03 
3e-05 3.0 1042.727 12.0 
7.73e-05 3.0 1025.909 12.0 
7 1 8 0 150.0 0 0 0 0.03 
3e-05 3.0 1037.581 55.0 
6e-05 3.0 1027.419 55.0 
8 1 0 0 0 0 0 0 0.03 
3e-05 3.0 1021.875 40.0 
6e-05 3.0 991.875 40.0 
9 1 0 2 0 100.0 0 0 0 0.03 
3e-05 3.0 1051.0 4.0 
1e-05 3.0 1050.0 4.0 
9 0 0
1 1 2 0 50.0 0 0 0 0.03 
3e-05 3.0 1093.048 12.0 
7.73e-05 3.0 1077.408 12.0 
2 1 6 0 0 0 0 0 0.03 
3e-05 3.0 1071.934 12.0 
7.73e-05 3.0 1052.359 12.0 
3 1 5 0 0 0 0 0 0.03 
3e-05 3.0 1073.636 10.0 
7.73e-05 3.0 1060.545 10.0 
4 1 5 0 10.0 0 0 0 0.03 
3e-05 3.0 1077.727 10.0 
7.73e-05 3.0 1063.182 10.0 
5 1 6 0 0 0 0 0 0.03 
3e-05 3.0 1058.0 15.0 
7.73e-05 3.0 1046.25 15.0 
6 1 8 0 0 0 0 0 0.03 
3e-05 3.0 1042.727 12.0 
7.73e-05 3.0 1025.909 12.0 
7 1 8 0 150.0 0 0 0 0.03 
3e-05 3.0 1037.581 55.0 
6e-05 3.0 1027.419 55.0 
8 1 0 0 0 0 0 0 0.03 
3e-05 3.0 1021.875 40.0 
6e-05 3.0 991.875 40.0 
9 1 0 2 0 100.0 0 0 0 0.03 
3e-05 3.0 1051.0 4.0 
1e-05 3.0 1050.0 4.0 
9 0 0
1 1 2 0 50.0 0 0 0 0.03 
3e-05 3.0 1093.048 12.0 
7.73e-05 3.0 1077.408 12.0 
2 1 6 0 0 0 0 0 0.03 
3e-05 3.0 1071.934 12.0 
7.73e-05 3.0 1052.359 12.0 
3 1 5 0 0 0 0 0 0.03 
3e-05 3.0 1073.636 10.0 
7.73e-05 3.0 1060.545 10.0 
4 1 5 0 10.0 0 0 0 0.03 
3e-05 3.0 1077.727 10.0 
7.73e-05 3.0 1063.182 10.0 
5 1 6 0 0 0 0 0 0.03 
3e-05 3.0 1058.0 15.0 
7.73e-05 3.0 1046.25 15.0 
6 1 8 0 0 0 0 0 0.03 
3e-05 3.0 1042.727 12.0 
7.73e-05 3.0 1025.909 12.0 
7 1 8 0 150.0 0 0 0 0.03 
3e-05 3.0 1037.581 55.0 
6e-05 3.0 1027.419 55.0 
8 1 0 0 0 0 0 0 0.03 
3e-05 3.0 1021.875 40.0 
6e-05 3.0 991.875 40.0 
9 1 0 2 0 100.0 0 0 0 0.03 
3e-05 3.0 1051.0 4.0 
1e-05 3.0 1050.0 4.0 
9 0 0
1 1 2 0 50.0 0 0 0 0.03 
3e-05 3.0 1093.048 12.0 
7.73e-05 3.0 1077.408 12.0 
2 1 6 0 0 0 0 0 0.03 
3e-05 3.0 1071.934 12.0 
7.73e-05 3.0 1052.359 12.0 
3 1 5 0 0 0 0 0 0.03 
3e-05 3.0 1073.636 10.0 
7.73e-05 3.0 1060.545 10.0 
4 1 5 0 10.0 0 0 0 0.03 
3e-05 3.0 1077.727 10.0 
7.73e-05 3.0 1063.182 10.0 
5 1 6 0 0 0 0 0 0.03 
3e-05 3.0 1058.0 15.0 
7.73e-05 3.0 1046.25 15.0 
6 1 8 0 0 0 0 0 0.03 
3e-05 3.0 1042.727 12.0 
7.73e-05 3.0 1025.909 12.0 
7 1 8 0 150.0 0 0 0 0.03 
3e-05 3.0 1037.581 55.0 
6e-05 3.0 1027.419 55.0 
8 1 0 0 0 0 0 0 0.03 
3e-05 3.0 1021.875 40.0 
6e-05 3.0 991.875 40.0 
9 1 0 2 0 100.0 0 0 0 0.03 
3e-05 3.0 1051.0 4.0 
1e-05 3.0 1050.0 4.0 
9 0 0
1 1 2 0 50.0 0 0 0 0.03 
3e-05 3.0 1093.048 12.0 
7.73e-05 3.0 1077.408 12.0 
2 1 6 0 0 0 0 0 0.03 
3e-05 3.0 1071.934 12.0 
7.73e-05 3.0 1052.359 12.0 
3 1 5 0 0 0 0 0 0.03 
3e-05 3.0 1073.636 10.0 
7.73e-05 3.0 1060.545 10.0 
4 1 5 0 10.0 0 0 0 0.03 
3e-05 3.0 1077.727 10.0 
7.73e-05 3.0 1063.182 10.0 
5 1 6 0 0 0 0 0 0.03 
3e-05 3.0 1058.0 15.0 
7.73e-05 3.0 1046.25 15.0 
6 1 8 0 0 0 0 0 0.03 
3e-05 3.0 1042.727 12.0 
7.73e-05 3.0 1025.909 12.0 
7 1 8 0 150.0 0 0 0 0.03 
3e-05 3.0 1037.581 55.0 
6e-05 3.0 1027.419 55.0 
8 1 0 0 0 0 0 0 0.03 
3e-05 3.0 1021.875 40.0 
6e-05 3.0 991.875 40.0 
9 1 0 2 0 100.0 0 0 0 0.03 
3e-05 3.0 1051.0 4.0 
1e-05 3.0 1050.0 4.0 
9 0 0
1 1 2 0 50.0 0 0 0 0.03 
3e-05 3.0 1093.048 12.0 
7.73e-05 3.0 1077.408 12.0 
2 1 6 0 0 0 0 0 0.03 
3e-05 3.0 1071.934 12.0 
7.73e-05 3.0 1052.359 12.0 
3 1 5 0 0 0 0 0 0.03 
3e-05 3.0 1073.636 10.0 
7.73e-05 3.0 1060.545 10.0 
4 1 5 0 10.0 0 0 0 0.03 
3e-05 3.0 1077.727 10.0 
7.73e-05 3.0 1063.182 10.0 
5 1 6 0 0 0 0 0 0.03 
3e-05 3.0 1058.0 15.0 
7.73e-05 3.0 1046.25 15.0 
6 1 8 0 0 0 0 0 0.03 
3e-05 3.0 1042.727 12.0 
7.73e-05 3.0 1025.909 12.0 
7 1 8 0 150.0 0 0 0 0.03 
3e-05 3.0 1037.581 55.0 
6e-05 3.0 1027.419 55.0 
8 1 0 0 0 0 0 0 0.03 
3e-05 3.0 1021.875 40.0 
6e-05 3.0 991.875 40.0 
9 1 0 2 0 100.0 0 0 0 0.03 
3e-05 3.0 1051.0 4.0 
1e-05 3.0 1050.0 4.0 
9 0 0
1 1 2 0 50.0 0 0 0 0.03 
3e-05 3.0 1093.048 12.0 
7.73e-05 3.0 1077.408 12.0 
2 1 6 0 0 0 0 0 0.03 
3e-05 3.0 1071.934 12.0 
7.73e-05 3.0 1052.359 12.0 
3 1 5 0 0 0 0 0 0.03 
3e-05 3.0 1073.636 10.0 
7.73e-05 3.0 1060.545 10.0 
4 1 5 0 10.0 0 0 0 0.03 
3e-05 3.0 1077.727 10.0 
7.73e-05 3.0 1063.182 10.0 
5 1 6 0 0 0 0 0 0.03 
3e-05 3.0 1058.0 15.0 
7.73e-05 3.0 1046.25 15.0 
6 1 8 0 0 0 0 0 0.03 
3e-05 3.0 1042.727 12.0 
7.73e-05 3.0 1025.909 12.0 
7 1 8 0 150.0 0 0 0 0.03 
3e-05 3.0 1037.581 55.0 
6e-05 3.0 1027.419 55.0 
8 1 0 0 0 0 0 0 0.03 
3e-05 3.0 1021.875 40.0 
6e-05 3.0 991.875 40.0 
9 1 0 2 0 100.0 0 0 0 0.03 
3e-05 3.0 1051.0 4.0 
1e-05 3.0 1050.0 4.0 
9 0 0
1 1 2 0 50.0 0 0 0 0.03 
3e-05 3.0 1093.048 12.0 
7.73e-05 3.0 1077.408 12.0 
2 1 6 0 0 0 0 0 0.03 
3e-05 3.0 1071.934 12.0 
7.73e-05 3.0 1052.359 12.0 
3 1 5 0 0 0 0 0 0.03 
3e-05 3.0 1073.636 10.0 
7.73e-05 3.0 1060.545 10.0 
4 1 5 0 10.0 0 0 0 0.03 
3e-05 3.0 1077.727 10.0 
7.73e-05 3.0 1063.182 10.0 
5 1 6 0 0 0 0 0 0.03 
3e-05 3.0 1058.0 15.0 
7.73e-05 3.0 1046.25 15.0 
6 1 8 0 0 0 0 0 0.03 
3e-05 3.0 1042.727 12.0 
7.73e-05 3.0 1025.909 12.0 
7 1 8 0 150.0 0 0 0 0.03 
3e-05 3.0 1037.581 55.0 
6e-05 3.0 1027.419 55.0 
8 1 0 0 0 0 0 0 0.03 
3e-05 3.0 1021.875 40.0 
6e-05 3.0 991.875 40.0 
9 1 0 2 0 100.0 0 0 0 0.03 
3e-05 3.0 1051.0 4.0 
1e-05 3.0 1050.0 4.0 
9 0 0
1 1 2 0 50.0 0 0 0 0.03 
3e-05 3.0 1093.048 12.0 
7.73e-05 3.0 1077.408 12.0 
2 1 6 0 0 0 0 0 0.03 
3e-05 3.0 1071.934 12.0 
7.73e-05 3.0 1052.359 12.0 
3 1 5 0 0 0 0 0 0.03 
3e-05 3.0 1073.636 10.0 
7.73e-05 3.0 1060.545 10.0 
4 1 5 0 10.0 0 0 0 0.03 
3e-05 3.0 1077.727 10.0 
7.73e-05 3.0 1063.182 10.0 
5 1 6 0 0 0 0 0 0.03 
3e-05 3.0 1058.0 15.0 
7.73e-05 3.0 1046.25 15.0 
6 1 8 0 0 0 0 0 0.03 
3e-05 3.0 1042.727 12.0 
7.73e-05 3.0 1025.909 12.0 
7 1 8 0 150.0 0 0 0 0.03 
3e-05 3.0 1037.581 55.0 
6e-05 3.0 1027.419 55.0 
8 1 0 0 0 0 0 0 0.03 
3e-05 3.0 1021.875 40.0 
6e-05 3.0 991.875 40.0 
9 1 0 2 0 100.0 0 0 0 0.03 
3e-05 3.0 1051.0 4.0 
1e-05 3.0 1050.0 4.0 
9 0 0
1 1 2 0 50.0 0 0 0 0.03 
3e-05 3.0 1093.048 12.0 
7.73e-05 3.0 1077.408 12.0 
2 1 6 0 0 0 0 0 0.03 
3e-05 3.0 1071.934 12.0 
7.73e-05 3.0 1052.359 12.0 
3 1 5 0 0 0 0 0 0.03 
3e-05 3.0 1073.636 10.0 
7.73e-05 3.0 1060.545 10.0 
4 1 5 0 10.0 0 0 0 0.03 
3e-05 3.0 1077.727 10.0 
7.73e-05 3.0 1063.182 10.0 
5 1 6 0 0 0 0 0 0.03 
3e-05 3.0 1058.0 15.0 
7.73e-05 3.0 1046.25 15.0 
6 1 8 0 0 0 0 0 0.03 
3e-05 3.0 1042.727 12.0 
7.73e-05 3.0 1025.909 12.0 
7 1 8 0 150.0 0 0 0 0.03 
3e-05 3.0 1037.581 55.0 
6e-05 3.0 1027.419 55.0 
8 1 0 0 0 0 0 0 0.03 
3e-05 3.0 1021.875 40.0 
6e-05 3.0 991.875 40.0 
9 1 0 2 0 100.0 0 0 0 0.03 
3e-05 3.0 1051.0 4.0 
1e-05 3.0 1050.0 4.0 
9 0 0
1 1 2 0 50.0 0 0 0 0.03 
3e-05 3.0 1093.048 12.0 
7.73e-05 3.0 1077.408 12.0 
2 1 6 0 0 0 0 0 0.03 
3e-05 3.0 1071.934 12.0 
7.73e-05 3.0 1052.359 12.0 
3 1 5 0 0 0 0 0 0.03 
3e-05 3.0 1073.636 10.0 
7.73e-05 3.0 1060.545 10.0 
4 1 5 0 10.0 0 0 0 0.03 
3e-05 3.0 1077.727 10.0 
7.73e-05 3.0 1063.182 10.0 
5 1 6 0 0 0 0 0 0.03 
3e-05 3.0 1058.0 15.0 
7.73e-05 3.0 1046.25 15.0 
6 1 8 0 0 0 0 0 0.03 
3e-05 3.0 1042.727 12.0 
7.73e-05 3.0 1025.909 12.0 
7 1 8 0 150.0 0 0 0 0.03 
3e-05 3.0 1037.581 55.0 
6e-05 3.0 1027.419 55.0 
8 1 0 0 0 0 0 0 0.03 
3e-05 3.0 1021.875 40.0 
6e-05 3.0 991.875 40.0 
9 1 0 2 0 100.0 0 0 0 0.03 
3e-05 3.0 1051.0 4.0 
1e-05 3.0 1050.0 4.0 
9 0 0
1 1 2 0 50.0 0 0 0 0.03 
3e-05 3.0 1093.048 12.0 
7.73e-05 3.0 1077.408 12.0 
2 1 6 0 0 0 0 0 0.03 
3e-05 3.0 1071.934 12.0 
7.73e-05 3.0 1052.359 12.0 
3 1 5 0 0 0 0 0 0.03 
3e-05 3.0 1073.636 10.0 
7.73e-05 3.0 1060.545 10.0 
4 1 5 0 10.0 0 0 0 0.03 
3e-05 3.0 1077.727 10.0 
7.73e-05 3.0 1063.182 10.0 
5 1 6 0 0 0 0 0 0.03 
3e-05 3.0 1058.0 15.0 
7.73e-05 3.0 1046.25 15.0 
6 1 8 0 0 0 0 0 0.03 
3e-05 3.0 1042.727 12.0 
7.73e-05 3.0 1025.909 12.0 
7 1 8 0 150.0 0 0 0 0.03 
3e-05 3.0 1037.581 55.0 
6e-05 3.0 1027.419 55.0 
8 1 0 0 0 0 0 0 0.03 
3e-05 3.0 1021.875 40.0 
6e-05 3.0 991.875 40.0 
9 1 0 2 0 100.0 0 0 0 0.03 
3e-05 3.0 1051.0 4.0 
1e-05 3.0 1050.0 4.0 
9 0 0
1 1 2 0 50.0 0 0 0 0.03 
3e-05 3.0 1093.048 12.0 
7.73e-05 3.0 1077.408 12.0 
2 1 6 0 0 0 0 0 0.03 
3e-05 3.0 1071.934 12.0 
7.73e-05 3.0 1052.359 12.0 
3 1 5 0 0 0 0 0 0.03 
3e-05 3.0 1073.636 10.0 
7.73e-05 3.0 1060.545 10.0 
4 1 5 0 10.0 0 0 0 0.03 
3e-05 3.0 1077.727 10.0 
7.73e-05 3.0 1063.182 10.0 
5 1 6 0 0 0 0 0 0.03 
3e-05 3.0 1058.0 15.0 
7.73e-05 3.0 1046.25 15.0 
6 1 8 0 0 0 0 0 0.03 
3e-05 3.0 1042.727 12.0 
7.73e-05 3.0 1025.909 12.0 
7 1 8 0 150.0 0 0 0 0.03 
3e-05 3.0 1037.581 55.0 
6e-05 3.0 1027.419 55.0 
8 1 0 0 0 0 0 0 0.03 
3e-05 3.0 1021.875 40.0 
6e-05 3.0 991.875 40.0 
9 1 0 2 0 100.0 0 0 0 0.03 
3e-05 3.0 1051.0 4.0 
1e-05 3.0 1050.0 4.0 
9 0 0
1 1 2 0 50.0 0 0 0 0.03 
3e-05 3.0 1093.048 12.0 
7.73e-05 3.0 1077.408 12.0 
2 1 6 0 0 0 0 0 0.03 
3e-05 3.0 1071.934 12.0 
7.73e-05 3.0 1052.359 12.0 
3 1 5 0 0 0 0 0 0.03 
3e-05 3.0 1073.636 10.0 
7.73e-05 3.0 1060.545 10.0 
4 1 5 0 10.0 0 0 0 0.03 
3e-05 3.0 1077.727 10.0 
7.73e-05 3.0 1063.182 10.0 
5 1 6 0 0 0 0 0 0.03 
3e-05 3.0 1058.0 15.0 
7.73e-05 3.0 1046.25 15.0 
6 1 8 0 0 0 0 0 0.03 
3e-05 3.0 1042.727 12.0 
7.73e-05 3.0 1025.909 12.0 
7 1 8 0 150.0 0 0 0 0.03 
3e-05 3.0 1037.581 55.0 
6e-05 3.0 1027.419 55.0 
8 1 0 0 0 0 0 0 0.03 
3e-05 3.0 1021.875 40.0 
6e-05 3.0 991.875 40.0 
9 1 0 2 0 100.0 0 0 0 0.03 
3e-05 3.0 1051.0 4.0 
1e-05 3.0 1050.0 4.0 
9 0 0
1 1 2 0 50.0 0 0 0 0.03 
3e-05 3.0 1093.048 12.0 
7.73e-05 3.0 1077.408 12.0 
2 1 6 0 0 0 0 0 0.03 
3e-05 3.0 1071.934 12.0 
7.73e-05 3.0 1052.359 12.0 
3 1 5 0 0 0 0 0 0.03 
3e-05 3.0 1073.636 10.0 
7.73e-05 3.0 1060.545 10.0 
4 1 5 0 10.0 0 0 0 0.03 
3e-05 3.0 1077.727 10.0 
7.73e-05 3.0 1063.182 10.0 
5 1 6 0 0 0 0 0 0.03 
3e-05 3.0 1058.0 15.0 
7.73e-05 3.0 1046.25 15.0 
6 1 8 0 0 0 0 0 0.03 
3e-05 3.0 1042.727 12.0 
7.73e-05 3.0 1025.909 12.0 
7 1 8 0 150.0 0 0 0 0.03 
3e-05 3.0 1037.581 55.0 
6e-05 3.0 1027.419 55.0 
8 1 0 0 0 0 0 0 0.03 
3e-05 3.0 1021.875 40.0 
6e-05 3.0 991.875 40.0 
9 1 0 2 0 100.0 0 0 0 0.03 
3e-05 3.0 1051.0 4.0 
1e-05 3.0 1050.0 4.0 
9 0 0
1 1 2 0 50.0 0 0 0 0.03 
3e-05 3.0 1093.048 12.0 
7.73e-05 3.0 1077.408 12.0 
2 1 6 0 0 0 0 0 0.03 
3e-05 3.0 1071.934 12.0 
7.73e-05 3.0 1052.359 12.0 
3 1 5 0 0 0 0 0 0.03 
3e-05 3.0 1073.636 10.0 
7.73e-05 3.0 1060.545 10.0 
4 1 5 0 10.0 0 0 0 0.03 
3e-05 3.0 1077.727 10.0 
7.73e-05 3.0 1063.182 10.0 
5 1 6 0 0 0 0 0 0.03 
3e-05 3.0 1058.0 15.0 
7.73e-05 3.0 1046.25 15.0 
6 1 8 0 0 0 0 0 0.03 
3e-05 3.0 1042.727 12.0 
7.73e-05 3.0 1025.909 12.0 
7 1 8 0 150.0 0 0 0 0.03 
3e-05 3.0 1037.581 55.0 
6e-05 3.0 1027.419 55.0 
8 1 0 0 0 0 0 0 0.03 
3e-05 3.0 1021.875 40.0 
6e-05 3.0 991.875 40.0 
9 1 0 2 0 100.0 0 0 0 0.03 
3e-05 3.0 1051.0 4.0 
1e-05 3.0 1050.0 4.0 
9 0 0
1 1 2 0 50.0 0 0 0 0.03 
3e-05 3.0 1093.048 12.0 
7.73e-05 3.0 1077.408 12.0 
2 1 6 0 0 0 0 0 0.03 
3e-05 3.0 1071.934 12.0 
7.73e-05 3.0 1052.359 12.0 
3 1 5 0 0 0 0 0 0.03 
3e-05 3.0 1073.636 10.0 
7.73e-05 3.0 1060.545 10.0 
4 1 5 0 10.0 0 0 0 0.03 
3e-05 3.0 1077.727 10.0 
7.73e-05 3.0 1063.182 10.0 
5 1 6 0 0 0 0 0 0.03 
3e-05 3.0 1058.0 15.0 
7.73e-05 3.0 1046.25 15.0 
6 1 8 0 0 0 0 0 0.03 
3e-05 3.0 1042.727 12.0 
7.73e-05 3.0 1025.909 12.0 
7 1 8 0 150.0 0 0 0 0.03 
3e-05 3.0 1037.581 55.0 
6e-05 3.0 1027.419 55.0 
8 1 0 0 0 0 0 0 0.03 
3e-05 3.0 1021.875 40.0 
6e-05 3.0 991.875 40.0 
9 1 0 2 0 100.0 0 0 0 0.03 
3e-05 3.0 1051.0 4.0 
1e-05 3.0 1050.0 4.0 
9 0 0
1 1 2 0 50.0 0 0 0 0.03 
3e-05 3.0 1093.048 12.0 
7.73e-05 3.0 1077.408 12.0 
2 1 6 0 0 0 0 0 0.03 
3e-05 3.0 1071.934 12.0 
7.73e-05 3.0 1052.359 12.0 
3 1 5 0 0 0 0 0 0.03 
3e-05 3.0 1073.636 10.0 
7.73e-05 3.0 1060.545 10.0 
4 1 5 0 10.0 0 0 0 0.03 
3e-05 3.0 1077.727 10.0 
7.73e-05 3.0 1063.182 10.0 
5 1 6 0 0 0 0 0 0.03 
3e-05 3.0 1058.0 15.0 
7.73e-05 3.0 1046.25 15.0 
6 1 8 0 0 0 0 0 0.03 
3e-05 3.0 1042.727 12.0 
7.73e-05 3.0 1025.909 12.0 
7 1 8 0 150.0 0 0 0 0.03 
3e-05 3.0 1037.581 55.0 
6e-05 3.0 1027.419 55.0 
8 1 0 0 0 0 0 0 0.03 
3e-05 3.0 1021.875 40.0 
6e-05 3.0 991.875 40.0 
9 1 0 2 0 100.0 0 0 0 0.03 
3e-05 3.0 1051.0 4.0 
1e-05 3.0 1050.0 4.0 
9 0 0
1 1 2 0 50.0 0 0 0 0.03 
3e-05 3.0 1093.048 12.0 
7.73e-05 3.0 1077.408 12.0 
2 1 6 0 0 0 0 0 0.03 
3e-05 3.0 1071.934 12.0 
7.73e-05 3.0 1052.359 12.0 
3 1 5 0 0 0 0 0 0.03 
3e-05 3.0 1073.636 10.0 
7.73e-05 3.0 1060.545 10.0 
4 1 5 0 10.0 0 0 0 0.03 
3e-05 3.0 1077.727 10.0 
7.73e-05 3.0 1063.182 10.0 
5 1 6 0 0 0 0 0 0.03 
3e-05 3.0 1058.0 15.0 
7.73e-05 3.0 1046.25 15.0 
6 1 8 0 0 0 0 0 0.03 
3e-05 3.0 1042.727 12.0 
7.73e-05 3.0 1025.909 12.0 
7 1 8 0 150.0 0 0 0 0.03 
3e-05 3.0 1037.581 55.0 
6e-05 3.0 1027.419 55.0 
8 1 0 0 0 0 0 0 0.03 
3e-05 3.0 1021.875 40.0 
6e-05 3.0 991.875 40.0 
9 1 0 2 0 100.0 0 0 0 0.03 
3e-05 3.0 1051.0 4.0 
1e-05 3.0 1050.0 4.0 
9 0 0
1 1 2 0 50.0 0 0 0 0.03 
3e-05 3.0 1093.048 12.0 
7.73e-05 3.0 1077.408 12.0 
2 1 6 0 0 0 0 0 0.03 
3e-05 3.0 1071.934 12.0 
7.73e-05 3.0 1052.359 12.0 
3 1 5 0 0 0 0 0 0.03 
3e-05 3.0 1073.636 10.0 
7.73e-05 3.0 1060.545 10.0 
4 1 5 0 10.0 0 0 0 0.03 
3e-05 3.0 1077.727 10.0 
7.73e-05 3.0 1063.182 10.0 
5 1 6 0 0 0 0 0 0.03 
3e-05 3.0 1058.0 15.0 
7.73e-05 3.0 1046.25 15.0 
6 1 8 0 0 0 0 0 0.03 
3e-05 3.0 1042.727 12.0 
7.73e-05 3.0 1025.909 12.0 
7 1 8 0 150.0 0 0 0 0.03 
3e-05 3.0 1037.581 55.0 
6e-05 3.0 1027.419 55.0 
8 1 0 0 0 0 0 0 0.03 
3e-05 3.0 1021.875 40.0 
6e-05 3.0 991.875 40.0 
9 1 0 2 0 100.0 0 0 0 0.03 
3e-05 3.0 1051.0 4.0 
1e-05 3.0 1050.0 4.0 
9 0 0
1 1 2 0 50.0 0 0 0 0.03 
3e-05 3.0 1093.048 12.0 
7.73e-05 3.0 1077.408 12.0 
2 1 6 0 0 0 0 0 0.03 
3e-05 3.0 1071.934 12.0 
7.73e-05 3.0 1052.359 12.0 
3 1 5 0 0 0 0 0 0.03 
3e-05 3.0 1073.636 10.0 
7.73e-05 3.0 1060.545 10.0 