# DIS package for MODFLOW-NWT generated by Flopy 3.3.6
         1        15        10        49         4         1
  0
CONSTANT    5.000000E+03                           #delr                          
CONSTANT    5.000000E+03                           #delc                          
INTERNAL               1  (10E15.6) -1 #model_top                     
   1.105000E+03   1.105000E+03   0.000000E+00   0.000000E+00   0.000000E+00   0.000000E+00   0.000000E+00   0.000000E+00   0.000000E+00   0.000000E+00
   1.105000E+03   1.095000E+03   1.105000E+03   0.000000E+00   0.000000E+00   1.100000E+03   1.100000E+03   1.110000E+03   0.000000E+00   0.000000E+00
   0.000000E+00   1.100000E+03   1.085000E+03   1.080000E+03   1.078000E+03   1.076000E+03   1.073000E+03   1.090000E+03   0.000000E+00   0.000000E+00
   1.110000E+03   1.100000E+03   1.090000E+03   1.085000E+03   1.076000E+03   1.080000E+03   1.080000E+03   1.070000E+03   1.100000E+03   0.000000E+00
   1.110000E+03   1.100000E+03   1.085000E+03   1.080000E+03   1.078000E+03   1.074000E+03   1.077000E+03   1.066000E+03   1.075000E+03   1.080000E+03
   1.105000E+03   1.095000E+03   1.080000E+03   1.077000E+03   1.073000E+03   1.069000E+03   1.070000E+03   1.063000E+03   1.085000E+03   1.095000E+03
   1.105000E+03   1.090000E+03   1.075000E+03   1.072000E+03   1.070000E+03   1.065000E+03   1.065000E+03   1.069000E+03   1.090000E+03   0.000000E+00
   0.000000E+00   1.080000E+03   1.070000E+03   1.068000E+03   1.063000E+03   1.060000E+03   1.063000E+03   1.067000E+03   1.090000E+03   0.000000E+00
   0.000000E+00   1.075000E+03   1.065000E+03   1.062000E+03   1.058000E+03   1.052000E+03   1.055000E+03   1.065000E+03   1.090000E+03   0.000000E+00
   0.000000E+00   1.070000E+03   1.060000E+03   1.055000E+03   1.046000E+03   1.046000E+03   1.044000E+03   1.060000E+03   1.088000E+03   1.100000E+03
   0.000000E+00   1.055000E+03   1.050000E+03   1.045000E+03   1.041000E+03   1.042000E+03   1.040000E+03   1.050000E+03   1.075000E+03   0.000000E+00
   1.027000E+03   1.028000E+03   1.028000E+03   1.032000E+03   1.032000E+03   1.033000E+03   1.032000E+03   1.040000E+03   1.060000E+03   0.000000E+00
   9.970000E+02   1.004000E+03   1.008000E+03   1.014000E+03   1.020000E+03   1.027000E+03   1.032000E+03   1.038000E+03   1.050000E+03   0.000000E+00
   0.000000E+00   1.030000E+03   1.040000E+03   1.045000E+03   1.050000E+03   1.050000E+03   1.050000E+03   1.050000E+03   1.044000E+03   0.000000E+00
   0.000000E+00   0.000000E+00   1.080000E+03   1.080000E+03   1.080000E+03   1.080000E+03   0.000000E+00   0.000000E+00   0.000000E+00   0.000000E+00
INTERNAL               1  (10E15.6) -1 #botm layer 1                  
   1.000000E+03   1.000000E+03   0.000000E+00   0.000000E+00   0.000000E+00   0.000000E+00   0.000000E+00   0.000000E+00   0.000000E+00   0.000000E+00
   1.000000E+03   9.000000E+02   9.000000E+02   0.000000E+00   0.000000E+00   9.500000E+02   9.500000E+02   9.500000E+02   0.000000E+00   0.000000E+00
   0.000000E+00   8.500000E+02   6.700000E+02   6.800000E+02   6.800000E+02   7.700000E+02   7.700000E+02   8.900000E+02   0.000000E+00   0.000000E+00
   9.250000E+02   8.500000E+02   6.500000E+02   6.500000E+02   6.500000E+02   6.800000E+02   7.400000E+02   8.500000E+02   9.500000E+02   0.000000E+00
   9.250000E+02   8.000000E+02   6.500000E+02   6.000000E+02   6.000000E+02   6.000000E+02   6.500000E+02   7.200000E+02   8.500000E+02   9.500000E+02
   9.250000E+02   8.000000E+02   6.500000E+02   6.000000E+02   5.500000E+02   6.000000E+02   6.500000E+02   7.200000E+02   8.500000E+02   9.700000E+02
   9.250000E+02   8.000000E+02   6.500000E+02   6.000000E+02   5.500000E+02   6.000000E+02   6.500000E+02   7.200000E+02   9.500000E+02   0.000000E+00
   0.000000E+00   8.500000E+02   7.000000E+02   6.500000E+02   5.700000E+02   6.000000E+02   7.000000E+02   8.500000E+02   9.500000E+02   0.000000E+00
   0.000000E+00   8.500000E+02   7.000000E+02   6.500000E+02   5.400000E+02   5.800000E+02   7.000000E+02   8.500000E+02   9.500000E+02   0.000000E+00
   0.000000E+00   8.500000E+02   7.000000E+02   6.300000E+02   5.300000E+02   5.800000E+02   6.500000E+02   8.000000E+02   9.000000E+02   9.500000E+02
   0.000000E+00   8.500000E+02   7.000000E+02   6.200000E+02   5.800000E+02   6.200000E+02   7.000000E+02   8.000000E+02   9.000000E+02   0.000000E+00
   9.000000E+02   8.300000E+02   7.100000E+02   6.400000E+02   6.000000E+02   6.500000E+02   7.000000E+02   8.000000E+02   9.000000E+02   0.000000E+00
   9.000000E+02   8.100000E+02   7.500000E+02   7.000000E+02   6.500000E+02   7.000000E+02   7.500000E+02   8.000000E+02   9.000000E+02   0.000000E+00
   0.000000E+00   9.500000E+02   8.500000E+02   8.500000E+02   8.500000E+02   8.500000E+02   8.500000E+02   8.500000E+02   8.500000E+02   0.000000E+00
   0.000000E+00   0.000000E+00   9.500000E+02   9.500000E+02   9.500000E+02   9.500000E+02   0.000000E+00   0.000000E+00   0.000000E+00   0.000000E+00
      1.000000             1  1.000000  SS 
     30.500000            30  1.000000  TR 
     30.500000            30  1.000000  TR 
     30.500000            30  1.000000  TR 
     30.500000            30  1.000000  TR 
     30.500000            30  1.000000  TR 
     30.500000            30  1.000000  TR 
     30.500000            30  1.000000  TR 
     30.500000            30  1.000000  TR 
     30.500000            30  1.000000  TR 
     30.500000            30  1.000000  TR 
     30.500000            30  1.000000  TR 
     30.500000            30  1.000000  TR 
     30.500000            30  1.000000  TR 
     30.500000            30  1.000000  TR 
     30.500000            30  1.000000  TR 
     30.500000            30  1.000000  TR 
     30.500000            30  1.000000  TR 
     30.500000            30  1.000000  TR 
     30.500000            30  1.000000  TR 
     30.500000            30  1.000000  TR 
     30.500000            30  1.000000  TR 
     30.500000            30  1.000000  TR 
     30.500000            30  1.000000  TR 
     30.500000            30  1.000000  TR 
     30.500000            30  1.000000  TR 
     30.500000            30  1.000000  TR 
     30.500000            30  1.000000  TR 
     30.500000            30  1.000000  TR 
     30.500000            30  1.000000  TR 
     30.500000            30  1.000000  TR 
     30.500000            30  1.000000  TR 
     30.500000            30  1.000000  TR 
     30.500000            30  1.000000  TR 
     30.500000            30  1.000000  TR 
     30.500000            30  1.000000  TR 
     30.500000            30  1.000000  TR 
     30.500000            30  1.000000  TR 
     30.500000            30  1.000000  TR 
     30.500000            30  1.000000  TR 
     30.500000            30  1.000000  TR 
     30.500000            30  1.000000  TR 
     30.500000            30  1.000000  TR 
     30.500000            30  1.000000  TR 
     30.500000            30  1.000000  TR 
     30.500000            30  1.000000  TR 
     30.500000            30  1.000000  TR 
     30.500000            30  1.000000  TR 
     30.500000            30  1.000000  TR 
